Version 4
SHEET 1 1988 1032
WIRE 400 -64 336 -64
WIRE 480 -64 400 -64
WIRE 656 -64 480 -64
WIRE 768 -64 656 -64
WIRE 480 -48 480 -64
WIRE 208 0 208 -16
WIRE 336 0 336 -64
WIRE 768 0 768 -64
WIRE 480 32 480 16
WIRE -32 64 -144 64
WIRE 96 64 -32 64
WIRE 544 64 448 64
WIRE 656 64 656 -64
WIRE 656 64 624 64
WIRE -144 80 -144 64
WIRE -32 80 -32 64
WIRE 768 96 768 80
WIRE 48 128 32 128
WIRE 96 128 48 128
WIRE 544 128 448 128
WIRE -32 160 -32 144
WIRE -144 176 -144 160
WIRE 96 192 80 192
WIRE 544 192 544 128
WIRE 544 192 448 192
WIRE 656 192 544 192
WIRE 544 208 544 192
WIRE 656 208 656 192
WIRE 544 288 544 272
WIRE 656 304 656 288
WIRE 464 320 448 320
WIRE 576 320 544 320
WIRE 96 384 80 384
WIRE 560 384 448 384
WIRE 656 384 624 384
WIRE -32 464 -144 464
WIRE 96 464 -32 464
WIRE 496 464 448 464
WIRE 608 464 576 464
WIRE 656 464 608 464
WIRE -144 480 -144 464
WIRE -32 480 -32 464
WIRE 48 528 32 528
WIRE 96 528 48 528
WIRE 544 528 448 528
WIRE -32 560 -32 544
WIRE -144 576 -144 560
WIRE 96 592 80 592
WIRE 544 592 544 528
WIRE 544 592 448 592
WIRE 656 592 544 592
WIRE 544 608 544 592
WIRE 656 608 656 592
WIRE 544 688 544 672
WIRE 656 704 656 688
WIRE 464 720 448 720
WIRE 576 720 544 720
WIRE 96 784 80 784
WIRE 576 784 448 784
WIRE 672 784 640 784
WIRE 272 848 272 832
FLAG 656 384 0
FLAG 272 848 0
FLAG 80 192 0
FLAG -144 176 0
FLAG 768 96 0
FLAG 16 384 0
FLAG 544 288 0
FLAG 656 304 0
FLAG -144 64 IN1
FLAG 656 192 OUT1
FLAG 672 784 0
FLAG 544 688 0
FLAG 656 704 0
FLAG 656 592 OUT2
FLAG 80 592 0
FLAG 576 320 0
FLAG 576 720 0
FLAG 16 784 0
FLAG -32 160 0
FLAG -32 560 0
FLAG 480 32 0
FLAG 400 -64 BIAS
FLAG 608 464 BIAS
FLAG -144 576 0
FLAG -144 464 IN2
FLAG 48 128 BIAS
FLAG 48 528 BIAS
SYMBOL cap 560 400 R270
WINDOW 0 0 32 VBottom 2
WINDOW 3 32 32 VTop 2
WINDOW 39 53 32 VTop 2
SYMATTR InstName C1
SYMATTR Value 0.1µ
SYMBOL voltage 768 -16 R0
WINDOW 123 0 0 Left 2
WINDOW 39 0 0 Left 2
SYMATTR InstName V1
SYMATTR Value 5
SYMBOL voltage -144 64 R0
WINDOW 123 0 0 Left 2
WINDOW 39 0 0 Left 2
SYMATTR InstName V2
SYMATTR Value 1.65
SYMBOL res 640 192 R0
SYMATTR InstName RLOAD1
SYMATTR Value 0.48
SYMBOL cap 80 368 R90
WINDOW 0 0 32 VBottom 2
WINDOW 3 32 32 VTop 2
WINDOW 39 53 32 VTop 2
SYMATTR InstName C2
SYMATTR Value 1000p
SYMBOL cap 528 208 R0
WINDOW 3 26 56 Left 2
SYMATTR Value 10µ
SYMATTR InstName C3
SYMATTR SpiceLine Rser=2m
SYMBOL res 640 48 R90
WINDOW 0 0 56 VBottom 2
WINDOW 3 32 56 VTop 2
SYMATTR InstName R3
SYMATTR Value 51k
SYMBOL cap 576 800 R270
WINDOW 0 32 32 VTop 2
WINDOW 3 0 32 VBottom 2
SYMATTR InstName C5
SYMATTR Value 0.1µ
SYMBOL res 640 592 R0
SYMATTR InstName RLOAD2
SYMATTR Value 0.48
SYMBOL cap 528 608 R0
WINDOW 3 26 56 Left 2
SYMATTR Value 10µ
SYMATTR InstName C4
SYMATTR SpiceLine Rser=3m
SYMBOL res 592 448 R90
WINDOW 0 0 56 VBottom 2
WINDOW 3 32 56 VTop 2
SYMATTR InstName R4
SYMATTR Value 51k
SYMBOL LT3072 272 416 R0
SYMATTR InstName U1
SYMBOL cap 80 768 R90
WINDOW 0 0 32 VBottom 2
WINDOW 3 32 32 VTop 2
WINDOW 39 53 32 VTop 2
SYMATTR InstName C6
SYMATTR Value 1000p
SYMBOL cap -48 80 R0
WINDOW 3 26 56 Left 2
SYMATTR Value 22µ
SYMATTR InstName C7
SYMATTR SpiceLine Rser=2m
SYMBOL cap -48 480 R0
WINDOW 3 26 56 Left 2
SYMATTR Value 22µ
SYMATTR InstName C8
SYMATTR SpiceLine Rser=2m
SYMBOL cap 464 -48 R0
WINDOW 3 26 56 Left 2
SYMATTR Value 2.2µ
SYMATTR InstName C9
SYMATTR SpiceLine Rser=2m
SYMBOL res 560 304 R90
WINDOW 0 0 56 VBottom 2
WINDOW 3 32 56 VTop 2
SYMATTR InstName R1
SYMATTR Value 1k
SYMBOL res 560 704 R90
WINDOW 0 0 56 VBottom 2
WINDOW 3 32 56 VTop 2
SYMATTR InstName R2
SYMATTR Value 1k
SYMBOL voltage -144 464 R0
WINDOW 123 0 0 Left 2
WINDOW 39 0 0 Left 2
SYMATTR InstName V3
SYMATTR Value 1.65
TEXT 744 816 Left 2 !.tran 20m startup
TEXT 584 -104 Bottom 2 ;LT3072 - Dual, Low Noise, 2.5A Programmable Output, 80mV Low Dropout Linear Regulator\nInput1, Input2:  0.8V to 3.45V        Bias:  2.375V to 5.25V      Output1, Output 2: 0.6V to 2.5V @ 2.5A
TEXT 648 880 Top 2 ;If the simulation model is not found please update with the "Sync Release" command from the "Tools" menu.\n  It remains the customer's responsibility to verify proper and reliable operation in the actual application.\n  Component substitution and printed circuit board layout may significantly affect circuit performance or reliability.\n  Contact your local sales representative for assistance. This circuit is distributed to customers only for use with ADI parts.\n  Copyright ©2020 Analog Devices Inc. All rights reserved.
