Version 4
SHEET 1 3184 1252
WIRE 496 -352 400 -352
WIRE 624 -352 496 -352
WIRE 400 -288 400 -352
WIRE -912 -256 -976 -256
WIRE -816 -256 -912 -256
WIRE -704 -256 -736 -256
WIRE -640 -256 -704 -256
WIRE -512 -256 -560 -256
WIRE 400 -144 400 -208
WIRE -608 -128 -608 -160
WIRE -704 -112 -704 -256
WIRE -624 -112 -704 -112
WIRE -512 -96 -512 -256
WIRE -512 -96 -560 -96
WIRE -304 -96 -512 -96
WIRE -144 -96 -224 -96
WIRE 64 -96 -144 -96
WIRE -624 -80 -704 -80
WIRE 624 -80 624 -352
WIRE -976 -48 -976 -256
WIRE -144 -48 -144 -96
WIRE -608 -32 -608 -64
WIRE -576 -32 -576 -64
WIRE 864 -32 864 -224
WIRE 864 -32 752 -32
WIRE 64 32 64 -96
WIRE 272 32 64 32
WIRE 368 32 272 32
WIRE 368 48 368 32
WIRE 400 48 368 48
WIRE -976 64 -976 32
WIRE -976 64 -1040 64
WIRE -704 64 -704 -80
WIRE -704 64 -752 64
WIRE -144 64 -144 16
WIRE -144 64 -224 64
WIRE 976 64 752 64
WIRE -752 80 -752 64
WIRE 400 80 368 80
WIRE -976 96 -976 64
WIRE 272 96 64 96
WIRE 368 96 368 80
WIRE 368 96 272 96
WIRE -144 112 -144 64
WIRE 864 160 752 160
WIRE -752 192 -752 160
WIRE -608 192 -608 160
WIRE -576 192 -576 160
WIRE -704 208 -704 64
WIRE -624 208 -704 208
WIRE -512 224 -560 224
WIRE -304 224 -512 224
WIRE -144 224 -144 176
WIRE -144 224 -224 224
WIRE 64 224 64 96
WIRE 64 224 -144 224
WIRE -624 240 -704 240
WIRE 624 240 624 208
WIRE -608 288 -608 256
WIRE -976 384 -976 176
WIRE -912 384 -976 384
WIRE -816 384 -912 384
WIRE -704 384 -704 240
WIRE -704 384 -736 384
WIRE -640 384 -704 384
WIRE -512 384 -512 224
WIRE -512 384 -560 384
WIRE 864 544 864 160
WIRE -2048 576 -2048 480
WIRE -1792 576 -1792 480
WIRE -1520 576 -1520 480
WIRE 864 720 864 624
WIRE -2048 752 -2048 656
WIRE -1792 752 -1792 656
WIRE -1520 752 -1520 656
FLAG 624 240 0
FLAG 864 -224 VDD
FLAG 272 32 ADCINP
FLAG 272 96 ADCINN
FLAG 864 720 0
FLAG 496 -352 REF
FLAG -1792 752 0
FLAG -2048 480 VCC
FLAG -1792 480 VEE
FLAG -1520 480 VDD
FLAG -1520 752 0
FLAG -2048 752 0
FLAG 976 64 VSAMPLED
IOPIN 976 64 Out
FLAG -608 -160 VCC
FLAG -608 -32 VEE
FLAG -576 -32 VCC
FLAG -608 288 VCC
FLAG -608 160 VEE
FLAG -576 160 VCC
FLAG -224 64 0
FLAG -1040 64 0
FLAG -912 -256 VINP
FLAG -912 384 VINN
FLAG -752 192 0
FLAG 400 -144 0
SYMBOL voltage 864 528 R0
WINDOW 3 58 -156 VRight 2
WINDOW 123 0 0 Left 2
WINDOW 39 0 0 Left 2
SYMATTR Value PULSE(0 {vdd_val} 1u 1n 1n 10n {ts})
SYMATTR InstName V4
SYMBOL voltage 400 -304 R0
WINDOW 123 0 0 Left 2
WINDOW 39 0 0 Left 2
SYMATTR InstName V6
SYMATTR Value {vref_val}
SYMBOL voltage -2048 560 R0
WINDOW 123 0 0 Left 2
WINDOW 39 0 0 Left 2
SYMATTR InstName V7
SYMATTR Value {vcc_val}
SYMBOL voltage -1792 560 R0
WINDOW 123 0 0 Left 2
WINDOW 39 0 0 Left 2
SYMATTR InstName V8
SYMATTR Value {vee_val}
SYMBOL voltage -1520 560 R0
WINDOW 123 0 0 Left 2
WINDOW 39 0 0 Left 2
SYMATTR InstName V9
SYMATTR Value {vdd_val}
SYMBOL Opamps\\ADA4807-2 -592 -96 R0
SYMATTR InstName U3
SYMBOL Opamps\\ADA4807-2 -592 224 M180
SYMATTR InstName U4
SYMBOL res -208 -112 R90
WINDOW 0 0 56 VBottom 2
WINDOW 3 32 56 VTop 2
SYMATTR InstName R1
SYMATTR Value {Rval1}
SYMBOL res -208 208 R90
WINDOW 0 0 56 VBottom 2
WINDOW 3 32 56 VTop 2
SYMATTR InstName R2
SYMATTR Value {Rval2}
SYMBOL cap -160 -48 R0
SYMATTR InstName C1
SYMATTR Value {Cval1}
SYMBOL cap -128 176 R180
WINDOW 0 -22 54 Left 2
WINDOW 3 -59 -2 Left 2
SYMATTR InstName C2
SYMATTR Value {Cval2}
SYMBOL voltage -976 -64 R0
WINDOW 0 -32 56 VBottom 2
WINDOW 3 -46 -162 VTop 2
WINDOW 123 0 0 Left 2
WINDOW 39 0 0 Left 2
SYMATTR InstName V1
SYMATTR Value SINE({vcm} {vmag} {fin} 0 0 0)
SYMBOL voltage -976 80 R0
WINDOW 0 -32 56 VBottom 2
WINDOW 3 -38 292 VTop 2
WINDOW 123 0 0 Left 2
WINDOW 39 0 0 Left 2
SYMATTR InstName V2
SYMATTR Value SINE({-vcm} {vmag} {fin} 0 0 0)
SYMBOL res -544 -272 R90
WINDOW 0 0 56 VBottom 2
WINDOW 3 32 56 VTop 2
SYMATTR InstName R3
SYMATTR Value {Rf1_val}
SYMBOL res -544 368 R90
WINDOW 0 0 56 VBottom 2
WINDOW 3 32 56 VTop 2
SYMATTR InstName R4
SYMATTR Value {Rf2_val}
SYMBOL res -720 -272 R90
WINDOW 0 0 56 VBottom 2
WINDOW 3 32 56 VTop 2
SYMATTR InstName R5
SYMATTR Value {Rg1_val}
SYMBOL res -720 368 R90
WINDOW 0 0 56 VBottom 2
WINDOW 3 32 56 VTop 2
SYMATTR InstName R6
SYMATTR Value {Rg2_val}
SYMBOL voltage -752 64 R0
WINDOW 0 -51 6 Bottom 2
WINDOW 3 -70 41 Top 2
WINDOW 123 0 0 Left 2
WINDOW 39 0 0 Left 2
SYMATTR InstName V10
SYMATTR Value {vcm}
SYMBOL ADC\\AD4003 656 64 R0
SYMATTR InstName U1
TEXT -2000 400 Left 2 ;Driver Supply
TEXT -1592 400 Left 2 ;ADC Supply
TEXT -2176 -352 Left 2 !.param M=3\n.param N=4096\n.param vref_val=5\n.param vdd_val=1.8\n.param vcc_val=15\n.param vee_val=-15\n.param vcm=vref_val/{2}\n.param fs=2e6\n.param ts=1/fs\n.param fin= fs*M/N\n.param vmag=.93*vref_val/{2*Gain}\n.param tmax=1/(fs)\n.param END_SIM=M*(1/fin)
TEXT -2176 -456 Left 2 !.save v(vsampled)
TEXT -2176 -480 Left 2 !.option plotwinsize=0 numdgt=15
TEXT -2176 -504 Left 2 !.four {fin} 5 -1 v(vsampled)
TEXT -2176 72 Left 2 !.param Rval1=200\n.param Cval1=180p
TEXT -2176 128 Left 2 !.param Rval2=Rval1\n.param Cval2=Cval1
TEXT -2184 -560 Left 3 ;Simulation Setup
TEXT -2176 -528 Left 2 !.tran 0 {END_SIM+1/fin} {1/fin} {tmax}
TEXT -2176 -384 Left 3 ;Simulation Parameters
TEXT -2176 48 Left 2 ;Anti Aliasing Filter
TEXT -1704 -352 Left 2 ;Simulation cycles\nSample size\nADC reference voltage\nADC supply\nDriver VCC\nDriver VEE\nDC offset voltage\nSample frequency\nSample Period\nInput frequency\nInput amplitude\nMax time step\nSimulation end
TEXT -1704 80 Left 2 ;Rval1\nCval1\nRval2\nCval2
TEXT -2208 -840 Left 4 ;AD4001_THDS_V02
TEXT -2208 -800 Left 2 ;This circuit may be used to obtain THD results for the AD4001 series differential ADC\n using the AD4003 macro-model with an AD4807-2 driver in an inverting gain differential configuration.\n Additional driver models may be inserted via the component menu. Schematic redraw may\n be required. Simulation results produced by the .four SPICE command may be accessed by \nview->SPICE error log and are displayed at the end of the file. For all other performance \ncharacteristics and specifications refer to the AD4001 datasheet located at\nhttps://www.analog.com/en/products/ad4001.html#product-overview
TEXT -1704 208 Left 2 ;U1 Rf\nU1 Rg\nGain\nU2 Rf\nU2 Rg
TEXT -2184 184 Left 2 ;Driver Parameters
TEXT -264 -200 Left 2 ;Anti-Aliasing Filter
TEXT -672 -328 Left 2 ;ADC Driver
TEXT -1104 -216 Left 2 ;Input
TEXT -2176 296 Left 2 !.param Rf2_val=Rf1_val\n.param Rg2_val=Rg1_val
TEXT -2176 208 Left 2 !.param Rf1_val=2K\n.param Rg1_val=1K\n.param Gain=-{ Rf1_val/Rg1_val}
RECTANGLE Normal -1360 784 -2208 368 4
RECTANGLE Normal -2208 -592 -1360 -432
RECTANGLE Normal -1360 352 -2208 -416 4
RECTANGLE Normal 0 336 -352 -176 4
RECTANGLE Normal -368 464 -864 -304 4
RECTANGLE Normal -896 304 -1104 -192 4
