Version 4
SHEET 1 3184 1252
WIRE 512 -368 368 -368
WIRE 624 -368 512 -368
WIRE 368 -304 368 -368
WIRE -800 -256 -816 -256
WIRE -688 -256 -720 -256
WIRE -624 -256 -688 -256
WIRE -496 -256 -544 -256
WIRE 368 -160 368 -224
WIRE -592 -128 -592 -160
WIRE -688 -112 -688 -256
WIRE -608 -112 -688 -112
WIRE -496 -96 -496 -256
WIRE -496 -96 -544 -96
WIRE -432 -96 -496 -96
WIRE -304 -96 -432 -96
WIRE -144 -96 -224 -96
WIRE 16 -96 -144 -96
WIRE -736 -80 -960 -80
WIRE -608 -80 -736 -80
WIRE 624 -80 624 -368
WIRE -144 -48 -144 -96
WIRE -592 -32 -592 -64
WIRE -560 -32 -560 -64
WIRE 896 -32 896 -192
WIRE 896 -32 752 -32
WIRE 16 16 16 -96
WIRE 176 16 16 16
WIRE 368 16 176 16
WIRE 368 48 368 16
WIRE 400 48 368 48
WIRE -432 64 -432 -96
WIRE -432 64 -832 64
WIRE -144 64 -144 16
WIRE -144 64 -224 64
WIRE 1072 64 752 64
WIRE 400 80 368 80
WIRE -144 112 -144 64
WIRE 176 112 16 112
WIRE 368 112 368 80
WIRE 368 112 176 112
WIRE 896 160 752 160
WIRE -960 176 -960 -80
WIRE -592 192 -592 160
WIRE -560 192 -560 160
WIRE -784 208 -800 208
WIRE -608 208 -704 208
WIRE -496 224 -544 224
WIRE -304 224 -496 224
WIRE -144 224 -144 176
WIRE -144 224 -224 224
WIRE 16 224 16 112
WIRE 16 224 -144 224
WIRE -608 240 -688 240
WIRE 624 240 624 208
WIRE -592 288 -592 256
WIRE -960 304 -960 256
WIRE 896 368 896 160
WIRE -832 384 -832 64
WIRE -800 384 -832 384
WIRE -688 384 -688 240
WIRE -688 384 -720 384
WIRE -624 384 -688 384
WIRE -496 384 -496 224
WIRE -496 384 -544 384
WIRE 896 544 896 448
WIRE -2048 576 -2048 480
WIRE -1792 576 -1792 480
WIRE -1520 576 -1520 480
WIRE -2048 752 -2048 656
WIRE -1792 752 -1792 656
WIRE -1520 752 -1520 656
FLAG 624 240 0
FLAG 896 -192 VDD
FLAG 176 16 ADCINP
FLAG 176 112 ADCINN
FLAG 896 544 0
FLAG 512 -368 REF
FLAG -1792 752 0
FLAG -2048 480 VCC
FLAG -1792 480 VEE
FLAG -1520 480 VDD
FLAG -1520 752 0
FLAG -2048 752 0
FLAG 1072 64 VSAMPLED
IOPIN 1072 64 Out
FLAG -224 64 0
FLAG -960 304 0
FLAG -736 -80 VINP
FLAG -816 -256 0
FLAG -800 208 0
FLAG -592 -160 VCC
FLAG -592 -32 VEE
FLAG -560 -32 VCC
FLAG -592 288 VCC
FLAG -592 160 VEE
FLAG -560 160 VCC
FLAG 368 -160 0
SYMBOL voltage 896 352 R0
WINDOW 3 58 -156 VRight 2
WINDOW 123 0 0 Left 2
WINDOW 39 0 0 Left 2
SYMATTR Value PULSE(0 {vdd_val} 1u 1n 1n 10n {ts})
SYMATTR InstName V4
SYMBOL voltage 368 -320 R0
WINDOW 123 0 0 Left 2
WINDOW 39 0 0 Left 2
SYMATTR InstName V6
SYMATTR Value {vref_val}
SYMBOL voltage -2048 560 R0
WINDOW 123 0 0 Left 2
WINDOW 39 0 0 Left 2
SYMATTR InstName V7
SYMATTR Value {vcc_val}
SYMBOL voltage -1792 560 R0
WINDOW 123 0 0 Left 2
WINDOW 39 0 0 Left 2
SYMATTR InstName V8
SYMATTR Value {vee_val}
SYMBOL voltage -1520 560 R0
WINDOW 123 0 0 Left 2
WINDOW 39 0 0 Left 2
SYMATTR InstName V9
SYMATTR Value {vdd_val}
SYMBOL res -208 -112 R90
WINDOW 0 0 56 VBottom 2
WINDOW 3 32 56 VTop 2
SYMATTR InstName R3
SYMATTR Value {Rval1}
SYMBOL res -208 208 R90
WINDOW 0 0 56 VBottom 2
WINDOW 3 32 56 VTop 2
SYMATTR InstName R5
SYMATTR Value {Rval2}
SYMBOL cap -160 -48 R0
SYMATTR InstName C3
SYMATTR Value {Cval1}
SYMBOL cap -128 176 R180
WINDOW 0 -22 54 Left 2
WINDOW 3 -59 -2 Left 2
SYMATTR InstName C4
SYMATTR Value {Cval2}
SYMBOL voltage -960 160 R0
WINDOW 0 -32 56 VBottom 2
WINDOW 3 -46 -162 VTop 2
WINDOW 123 0 0 Left 2
WINDOW 39 0 0 Left 2
SYMATTR InstName V10
SYMATTR Value SINE({voff} {vmag} {fin} 0 0 0)
SYMBOL res -528 368 R90
WINDOW 0 0 56 VBottom 2
WINDOW 3 32 56 VTop 2
SYMATTR InstName R7
SYMATTR Value {Rf2_val}
SYMBOL res -704 368 R90
WINDOW 0 0 56 VBottom 2
WINDOW 3 32 56 VTop 2
SYMATTR InstName R8
SYMATTR Value {Rg2_val}
SYMBOL res -528 -272 R90
WINDOW 0 0 56 VBottom 2
WINDOW 3 32 56 VTop 2
SYMATTR InstName R9
SYMATTR Value {Rf1_val}
SYMBOL res -704 -272 R90
WINDOW 0 0 56 VBottom 2
WINDOW 3 32 56 VTop 2
SYMATTR InstName R10
SYMATTR Value {Rg1_val}
SYMBOL voltage -688 208 R90
WINDOW 0 -32 56 VBottom 2
WINDOW 3 32 56 VTop 2
WINDOW 123 0 0 Left 2
WINDOW 39 0 0 Left 2
SYMATTR InstName V11
SYMATTR Value {voff*Gain}
SYMBOL Opamps\\ADA4807-2 -576 -96 R0
SYMATTR InstName U6
SYMBOL Opamps\\ADA4807-2 -576 224 M180
SYMATTR InstName U1
SYMBOL ADC\\AD4003 656 64 R0
SYMATTR InstName U2
TEXT -2000 400 Left 2 ;Driver Supply
TEXT -1592 400 Left 2 ;ADC Supply
TEXT -2176 -352 Left 2 !.param M=3\n.param N=4096\n.param vref_val=5\n.param vdd_val=1.8\n.param vcc_val=15\n.param vee_val=-15\n.param voff=vref_val/{2*Gain}\n.param fs=2e6\n.param ts=1/fs\n.param fin= fs*M/N\n.param vmag=.93*vref_val/{2*Gain}\n.param tmax=1/(fs)\n.param END_SIM=M*(1/fin)
TEXT -2176 -456 Left 2 !.save v(vsampled)
TEXT -2176 -480 Left 2 !.option plotwinsize=0 numdgt=15
TEXT -2176 -504 Left 2 !.four {fin} 5 -1 v(vsampled)
TEXT -2176 72 Left 2 !.param Rval1=200\n.param Cval1=180p
TEXT -2176 128 Left 2 !.param Rval2=Rval1\n.param Cval2=Cval1
TEXT -2184 -560 Left 3 ;Simulation Setup
TEXT -2176 -528 Left 2 !.tran 0 {END_SIM+1/fin} {1/fin} {tmax}
TEXT -2176 -384 Left 3 ;Simulation Parameters
TEXT -2176 48 Left 2 ;Anti Aliasing Filter
TEXT -1704 -352 Left 2 ;Simulation cycles\nSample size\nADC reference voltage\nADC supply\nDriver VCC\nDriver VEE\nDC offset voltage\nSample frequency\nSample Period\nInput frequency\nInput amplitude\nMax time step\nSimulation end
TEXT -1704 80 Left 2 ;Rval1\nCval1\nRval2\nCval2
TEXT -2208 -840 Left 4 ;AD4001_THDS_V01
TEXT -2208 -800 Left 2 ;This circuit may be used to obtain THD results for the AD4001 series differential ADC\n using the AD4003 macro-model with an AD4807-2 driver in a non-inverting gain single ended configuration.\n Additional driver models may be inserted via the component menu. Schematic redraw may\n be required. Simulation results produced by the .four SPICE command may be accessed by \nview->SPICE error log and are displayed at the end of the file. For all other performance \ncharacteristics and specifications refer to the AD4001 datasheet located at\nhttps://www.analog.com/en/products/ad4001.html#product-overview
TEXT -264 -328 Left 2 ;Anti-Aliasing Filter
TEXT -672 -328 Left 2 ;ADC Driver
TEXT -1072 -328 Left 2 ;Input
TEXT -1704 200 Left 2 ;U1 Rf\nU1 Rg\nGain\nU2 Rf\nU2 Rg
TEXT -2184 184 Left 2 ;Driver Parameters
TEXT -2176 208 Left 2 !.param Rf1_val=2K\n.param Rg1_val=1K\n.param Gain={Rf1_val/Rg1_val + 1}\n.param Rf2_val=1K\n.param Rg2_val=1K
RECTANGLE Normal -1360 784 -2208 368 4
RECTANGLE Normal -2208 -592 -1360 -432
RECTANGLE Normal -1360 352 -2208 -416 4
RECTANGLE Normal 0 448 -352 -304 4
RECTANGLE Normal -368 448 -864 -304 4
RECTANGLE Normal -880 448 -1072 -304 4
