Version 4
SHEET 1 3132 2868
WIRE -592 1264 -608 1264
WIRE -384 1264 -400 1264
WIRE -192 1264 -208 1264
WIRE 400 1296 304 1296
WIRE 576 1296 400 1296
WIRE 576 1312 576 1296
WIRE -608 1360 -608 1264
WIRE -400 1360 -400 1264
WIRE -208 1360 -208 1264
WIRE 400 1376 400 1296
WIRE 416 1376 400 1376
WIRE 784 1376 736 1376
WIRE 912 1376 864 1376
WIRE -608 1456 -608 1440
WIRE -400 1456 -400 1440
WIRE -208 1456 -208 1440
WIRE 400 1488 400 1376
WIRE 416 1488 400 1488
WIRE 784 1488 736 1488
WIRE 912 1488 912 1376
WIRE 912 1488 864 1488
WIRE 1008 1488 912 1488
WIRE 1088 1488 1008 1488
WIRE 1168 1488 1088 1488
WIRE 912 1504 912 1488
WIRE 1008 1504 1008 1488
WIRE 1088 1504 1088 1488
WIRE 1168 1504 1168 1488
WIRE -336 1584 -528 1584
WIRE 416 1600 400 1600
WIRE 912 1600 912 1584
WIRE 912 1600 736 1600
WIRE 1008 1600 1008 1568
WIRE 1008 1600 912 1600
WIRE 1024 1600 1008 1600
WIRE 1088 1600 1088 1568
WIRE 1168 1600 1168 1584
WIRE 912 1616 912 1600
WIRE -336 1664 -336 1584
WIRE 1504 1680 1456 1680
WIRE 512 1696 512 1680
WIRE 640 1696 640 1680
WIRE 912 1712 912 1696
WIRE 1024 1792 1024 1600
WIRE 1328 1792 1024 1792
WIRE 1504 1792 1504 1680
WIRE 1504 1792 1408 1792
WIRE -464 1808 -640 1808
WIRE 16 1808 -96 1808
WIRE -336 2016 -336 1952
FLAG 640 1696 0
FLAG 512 1696 0
FLAG 400 1600 0
FLAG 1168 1600 0
FLAG 912 1712 0
FLAG 1088 1600 0
FLAG 1168 1488 OUT1
FLAG -208 1456 0
FLAG 16 1808 VDAC1_out
IOPIN 16 1808 Out
FLAG -336 2016 0
FLAG -608 1456 0
FLAG -192 1264 VIN
IOPIN -192 1264 Out
FLAG -592 1264 VDAC1_in
IOPIN -592 1264 Out
FLAG -400 1456 0
FLAG -384 1264 VDD1
IOPIN -384 1264 Out
FLAG -528 1584 VDD1
IOPIN -528 1584 In
FLAG -640 1808 VDAC1_in
IOPIN -640 1808 In
FLAG 1456 1680 VDAC1_out
IOPIN 1456 1680 In
FLAG 304 1296 VIN
IOPIN 304 1296 In
SYMBOL ind 768 1504 R270
WINDOW 0 32 56 VTop 2
WINDOW 3 5 56 VBottom 2
SYMATTR InstName L1
SYMATTR Value 150n
SYMATTR SpiceLine Rser=3m
SYMBOL RES 896 1488 R0
SYMATTR InstName R1
SYMATTR Value {RTOP1}
SYMBOL res 896 1600 R0
SYMATTR InstName R2
SYMATTR Value {RBOT1}
SYMBOL cap 1072 1504 R0
SYMATTR InstName C1
SYMATTR Value 10µ
SYMATTR SpiceLine Rser=2m
SYMBOL res 880 1360 R90
WINDOW 0 0 56 VBottom 2
WINDOW 3 32 56 VTop 2
SYMATTR InstName R4
SYMATTR Value 500K
SYMBOL cap 992 1504 R0
SYMATTR InstName C3
SYMATTR Value 6.8p
SYMBOL res 1152 1488 R0
SYMATTR InstName Rload
SYMATTR Value 1.2
SYMBOL LTC3307B 576 1472 R0
SYMATTR InstName U1
SYMBOL VOLTAGE -208 1344 R0
WINDOW 123 0 0 Left 2
WINDOW 39 0 0 Left 2
SYMATTR InstName V2
SYMATTR Value {VIN_val}
SYMBOL voltage -608 1344 R0
WINDOW 123 0 0 Left 2
WINDOW 39 0 0 Left 2
SYMATTR InstName V3
SYMATTR Value {VDAC1_val}
SYMBOL VOLTAGE -400 1344 R0
WINDOW 123 0 0 Left 2
WINDOW 39 0 0 Left 2
SYMATTR InstName V4
SYMATTR Value {VDD1_val}
SYMBOL DAC\\AD5679R -304 1808 R0
SYMATTR InstName VDAC1
SYMATTR SpiceLine Gain={Gain1}
SYMBOL res 1424 1776 R90
WINDOW 0 0 56 VBottom 2
WINDOW 3 32 56 VTop 2
SYMATTR InstName R10
SYMATTR Value {RS1}
TEXT -720 240 Left 2 !.tran 0 1.5001m 1.5m startup\n.step param VDAC1_val 0.7 1.0 0.1
TEXT -792 192 Left 4 ;Simulation Setup
TEXT -800 480 Left 4 ;Simulation Parameters
TEXT -760 552 Left 3 ;Constant Parameters
TEXT -760 712 Left 3 ;User Configurable Parameters
TEXT -728 584 Left 2 !.param VFB1 500m
TEXT -728 752 Left 2 !.param Gain1=1\n.param VOUT1_nominal=2.5\n.param VOUT1_margin_high=1.25*VOUT1_nominal\n.param VOUT1_margin_low=0.9*VOUT1_nominal\n.param VDAC1_in_margin_high=0.7\n.param VDAC1_in_margin_low=1\n.param RTOP1=56200\n.param VDD1_val=3.3\n.param VIN_val=5
TEXT -768 1048 Left 3 ;Output Parameters
TEXT -736 1080 Left 2 !.param VDAC1_out_margin_high=VDAC1_in_margin_high*Gain1\n.param VDAC1_out_margin_low=VDAC1_in_margin_low*Gain1\n.param VDAC1_nominal=VDAC1_out_margin_high-((((VOUT1_margin_high)-VOUT1_nominal)*(VDAC1_out_margin_high-VDAC1_out_margin_low))/((VOUT1_margin_high)-(VOUT1_margin_low)))\n.param RS1=(-RTOP1*(VDAC1_out_margin_low-VDAC1_out_margin_high))/((VOUT1_margin_low)-(VOUT1_margin_high))\n.param RBOT1=VFB1/(((VOUT1_nominal-VFB1)/RTOP1)-((VFB1-VDAC1_nominal)/RS1))
TEXT 1480 584 Left 2 ;Feedback voltage of Boost regulator (FB1)
TEXT 1480 752 Left 2 ;DAC gain for Boost regulator\nBoost regulator's target nominal output voltage\nBoost regulator's target margin high output voltage\nBoost regulator's target margin low output voltage\nMargin high DAC input value in Volts = margin high DAC register value*VREF/((2^n)-1)\nMargin low DAC input value in Volts = margin low DAC register value*VREF/((2^n)-1)\nR1 resistor value. Set RTOP1 which will result to a current passing thru R1 only within several tens of microamps\nVDAC1 VDD supply value\nInput voltage of ADP5071
TEXT 1488 1088 Left 2 ;Margin high VDAC1 output voltage\nMargin low VDAC1 output voltage\nNominal VDAC1 output voltage\nR7 resistor value\nR2 resistor value
TEXT -56 -72 Left 4 ;AD5679R + LTC3307 OUTPUT VOLTAGE MARGINING
TEXT -48 -32 Left 3 ;Description:\nAD5679R can be used to adjust the output voltage of the switcher (LTC3307). In this simulation, the feedback network resistor values are automatically computed and can be confirmed through simulation results.\nThis simulation schematic should be used in conjunction with the AD5679R and LTC3307 data sheet.\n \nProcedure:\n1) Set the target nominal,margin high, and margin low output voltages of LTC3307 by changing the values of VOUT1_nominal, VOUT1_margin_high, and VOUT1_margin_low\n2) The corresponding equivalent DAC values also needs to be set through VDAC1_in_margin_high and VDAC1_in_marginlow\n3) Set the desired RTOP1 value. Typically RTOP1 is chosen such that the current passing through the resistor is only about several tens of microamps.\n4) Also set the desired DAC gain, DAC supply and LTC3307's input voltage through VDD1_val and VIN_val.\n5) Set the start and stop values of .step function equivalent to the VDAC1_in_margin_high and VDAC1_in_margin_low\n6) Run the simulation\n7) Once the simulation is done, the derived RBOT1 and RS1 values can be viewed on the error log. To access the error log, press "CTRL" and "L" keys at the same time.\n8) The VDAC to VOUT transfer function can also be viewed by right clicking the error log and 'Plot .step'ed .meas data'. Right click anywhere on the plot, select 'Add Traces' and choose 'vdac1_val'.
TEXT -720 296 Left 2 !.meas TRAN VOUT1_val AVG V(OUT1)
TEXT -720 320 Left 2 !.meas TRAN RBOT1_val FIND RBOT1 AT 0\n.meas TRAN RS1_val FIND RS1 AT 0
TEXT -720 376 Left 2 !.option cshunt=1e-15 reltol=0.003 abstol=1e-10 gmin=1e-10
LINE Normal -512 592 -512 592 2
RECTANGLE Normal -64 432 -832 144 2
RECTANGLE Normal 2768 1216 -832 448 2
