Version 4
SHEET 1 1288 948
WIRE -160 -64 -272 -64
WIRE -64 -64 -160 -64
WIRE 144 -64 -64 -64
WIRE 176 -64 144 -64
WIRE 304 -64 256 -64
WIRE 384 -64 304 -64
WIRE 528 -64 448 -64
WIRE 576 -64 528 -64
WIRE 688 -64 640 -64
WIRE 784 -64 688 -64
WIRE 896 -64 784 -64
WIRE 992 -64 896 -64
WIRE 1120 -64 992 -64
WIRE -272 -16 -272 -64
WIRE -160 -16 -160 -64
WIRE -64 -16 -64 -64
WIRE 528 -16 528 -64
WIRE 688 -16 688 -64
WIRE 144 16 144 -64
WIRE 304 16 304 -64
WIRE 992 16 992 -64
WIRE 1120 16 1120 -64
WIRE 784 32 784 -64
WIRE 896 32 896 -64
WIRE -272 80 -272 64
WIRE -160 80 -160 48
WIRE -64 80 -64 64
WIRE 64 80 -64 80
WIRE 400 80 384 80
WIRE 480 80 464 80
WIRE 528 96 528 64
WIRE 688 96 688 48
WIRE 688 96 528 96
WIRE 528 128 528 96
WIRE 992 144 992 80
WIRE 1120 144 1120 96
WIRE -64 176 -64 160
WIRE 64 176 -64 176
WIRE 784 176 784 112
WIRE 784 176 384 176
WIRE 896 176 896 96
WIRE 896 176 784 176
WIRE -64 192 -64 176
WIRE 784 224 784 176
WIRE -32 272 -48 272
WIRE 64 272 48 272
WIRE 416 272 384 272
WIRE 528 272 496 272
WIRE 608 272 592 272
WIRE 784 352 784 304
WIRE -32 368 -48 368
WIRE 64 368 32 368
WIRE 448 368 384 368
WIRE 224 448 224 432
FLAG -272 80 0
FLAG 1120 144 0
FLAG 992 144 0
FLAG 224 448 0
FLAG -48 272 0
FLAG -48 368 0
FLAG 608 272 0
FLAG 784 352 0
FLAG 1120 -64 OUT
FLAG -272 -64 IN
FLAG 480 80 0
FLAG 528 128 0
FLAG -64 192 0
FLAG -160 80 0
FLAG 448 368 OUT
SYMBOL voltage -272 -32 M0
WINDOW 123 0 0 Left 2
WINDOW 39 0 0 Left 2
SYMATTR InstName V1
SYMATTR Value PWL(0 0 100u 12)
SYMBOL ind2 160 -48 R270
WINDOW 0 32 56 VTop 2
WINDOW 3 5 56 VBottom 2
SYMATTR InstName L1
SYMATTR Value 2.2µ
SYMATTR SpiceLine Rser=13m
SYMATTR Type ind
SYMBOL schottky 576 -48 R270
WINDOW 0 32 32 VTop 2
WINDOW 3 0 32 VBottom 2
SYMATTR InstName D1
SYMATTR Value MBRS340
SYMATTR Description Diode
SYMATTR Type diode
SYMBOL cap 976 16 R0
WINDOW 40 24 90 Left 2
SYMATTR SpiceLine2 x3
SYMATTR InstName C1
SYMATTR Value 22µ
SYMATTR SpiceLine Rser=4m
SYMBOL res 768 208 R0
SYMATTR InstName R2
SYMATTR Value 154k
SYMBOL cap 528 288 R270
WINDOW 0 32 32 VTop 2
WINDOW 3 0 32 VBottom 2
SYMATTR InstName C2
SYMATTR Value 1n
SYMBOL cap 32 352 R90
WINDOW 0 0 32 VBottom 2
WINDOW 3 32 32 VTop 2
SYMATTR InstName C3
SYMATTR Value 10n
SYMBOL res 64 256 R90
WINDOW 0 0 56 VBottom 2
WINDOW 3 32 56 VTop 2
SYMATTR InstName R5
SYMATTR Value 20k
SYMBOL cap 400 64 M90
WINDOW 0 0 32 VBottom 2
WINDOW 3 32 32 VTop 2
SYMATTR InstName C4
SYMATTR Value 1µ
SYMBOL res 1104 0 R0
SYMATTR InstName Rload
SYMATTR Value 6
SYMBOL ind2 544 80 R180
WINDOW 0 -52 75 Left 2
WINDOW 3 -71 42 Left 2
SYMATTR InstName L2
SYMATTR Value 2.2µ
SYMATTR Type ind
SYMATTR SpiceLine Rser=13m
SYMBOL res 768 16 R0
SYMATTR InstName R1
SYMATTR Value 1Meg
SYMBOL res 512 256 R90
WINDOW 0 0 56 VBottom 2
WINDOW 3 32 56 VTop 2
SYMATTR InstName R6
SYMATTR Value 22k
SYMBOL cap 448 -80 R90
WINDOW 0 0 32 VBottom 2
WINDOW 3 32 32 VTop 2
SYMATTR InstName C6
SYMATTR Value 4.7µ
SYMATTR SpiceLine Rser=2m
SYMBOL res -80 -32 R0
WINDOW 0 47 44 Left 2
WINDOW 3 42 80 Left 2
SYMATTR InstName R3
SYMATTR Value 1Meg
SYMBOL res -80 64 R0
WINDOW 0 44 49 Left 2
WINDOW 3 40 82 Left 2
SYMATTR InstName R4
SYMATTR Value 1.15Meg
SYMBOL cap 880 32 R0
SYMATTR InstName C5
SYMATTR Value 4.7p
SYMBOL cap -176 -16 R0
SYMATTR InstName C7
SYMATTR Value 10µ
SYMATTR SpiceLine Rser=10m
SYMBOL cap 672 -16 R0
SYMATTR InstName C8
SYMATTR Value 2.2µ
SYMATTR SpiceLine Rser=7m
SYMBOL PowerProducts\\LT8334 224 224 R0
SYMATTR InstName U1
TEXT 560 456 Left 2 !.tran 5m startup
TEXT 416 -136 Center 2 !K1 L1 L2 .99
TEXT -256 520 Left 2 ;Note:\n  A smaller SS capacitor is being used to reduce simulation time. See datasheet for typical values.\n  If the simulation model is not found please update with the "Sync Release" command from the "Tools" menu.\n  It remains the customer's responsibility to verify proper and reliable operation in the actual application.\n  Component substitution and printed circuit board layout may significantly affect circuit performance or reliability.\n  Contact your local sales representative for assistance. This circuit is distributed to customers only for use with ADI parts.\n  Copyright © 2021 Analog Device Inc. All rights reserved.
TEXT 408 -288 Center 3 ;LT8334 - Low Iq 40V, 5A Boost/SEPIC/Inverting Converter\n12V SEPIC Converter\nInput = 3V to 26V, Output = 12V,  Iout = 2A @12Vin, Fsw = 2MHz
TEXT -88 304 Left 2 ;2MHz
TEXT -488 168 Left 2 ;SYNC/MODE pin:\nBURST = GND\nBURST + SSFM = 100k to GND\nPULSE SKIP = Float\nPULSE SKIP + SSFM = INTVcc\nSYNC = External Clock
