Version 4
SHEET 1 2972 872
WIRE -368 -112 -464 -112
WIRE -272 -112 -368 -112
WIRE -176 -112 -272 -112
WIRE -64 -112 -176 -112
WIRE 400 -112 -64 -112
WIRE 560 -112 400 -112
WIRE 688 -112 624 -112
WIRE 848 -112 752 -112
WIRE 912 -112 848 -112
WIRE 992 -112 912 -112
WIRE 560 -64 560 -112
WIRE 624 -64 624 -112
WIRE 400 -32 400 -48
WIRE 848 -32 848 -112
WIRE 912 -32 912 -112
WIRE 992 -32 992 -112
WIRE -176 16 -176 -112
WIRE -464 32 -464 -112
WIRE -368 48 -368 -112
WIRE -272 48 -272 -112
WIRE -64 48 -64 -112
WIRE 0 48 -64 48
WIRE 256 48 224 48
WIRE 400 48 400 32
WIRE 400 48 336 48
WIRE 560 48 560 16
WIRE 560 48 400 48
WIRE 560 64 560 48
WIRE 624 96 624 16
WIRE 848 96 848 32
WIRE 848 96 624 96
WIRE 912 96 912 32
WIRE 912 96 848 96
WIRE 992 96 992 48
WIRE 992 96 912 96
WIRE 992 128 992 96
WIRE -176 144 -176 96
WIRE 0 144 -176 144
WIRE 512 144 224 144
WIRE -176 208 -176 144
WIRE 0 240 -64 240
WIRE 560 240 560 160
WIRE 560 240 224 240
WIRE 560 256 560 240
WIRE -464 352 -464 112
WIRE -368 352 -368 112
WIRE -368 352 -464 352
WIRE -272 352 -272 112
WIRE -272 352 -368 352
WIRE -176 352 -176 288
WIRE -176 352 -272 352
WIRE -64 352 -64 240
WIRE -64 352 -176 352
WIRE 560 352 560 336
WIRE -272 400 -272 352
FLAG 560 352 0
FLAG 992 128 0
FLAG -464 -112 IN
FLAG 992 -112 OUT
FLAG -272 400 0
SYMBOL voltage -464 16 R0
WINDOW 3 -232 83 Left 2
WINDOW 123 0 0 Left 0
WINDOW 39 0 0 Left 0
WINDOW 0 -95 24 Left 2
SYMATTR Value PWL(0 0 100u 24)
SYMATTR InstName VIN
SYMBOL ind2 544 -80 R0
WINDOW 0 1 27 Right 2
WINDOW 3 1 80 Right 2
SYMATTR InstName L1
SYMATTR Value 3µ
SYMATTR Type ind
SYMATTR SpiceLine Rser=10m
SYMBOL ind2 640 32 R180
WINDOW 0 1 84 Right 2
WINDOW 3 4 34 Right 2
SYMATTR InstName L2
SYMATTR Value 3µ
SYMATTR Type ind
SYMATTR SpiceLine Rser=10m
SYMBOL res 352 64 M270
WINDOW 0 32 56 VTop 2
WINDOW 3 0 56 VBottom 2
SYMATTR InstName R3
SYMATTR Value 118k
SYMBOL res 544 240 R0
SYMATTR InstName R4
SYMATTR Value 6m
SYMBOL LT8306 112 192 R0
SYMATTR InstName U1
SYMBOL NMOS 512 64 R0
SYMATTR InstName Q1
SYMATTR Value BSC190N12NS3
SYMBOL res -192 0 R0
SYMATTR InstName R1
SYMATTR Value 100k
SYMBOL zener 384 -112 R0
WINDOW 0 -5 -51 Left 2
WINDOW 3 -46 -20 Left 2
SYMATTR InstName D2
SYMATTR Value KDZLV68
SYMATTR Description Diode
SYMATTR Type diode
SYMBOL diode 384 32 M180
WINDOW 0 4 -62 Left 2
WINDOW 3 -7 -32 Left 2
SYMATTR InstName D3
SYMATTR Value ES1D
SYMBOL cap 896 -32 R0
WINDOW 123 38 29 Left 2
SYMATTR Value2 x4
SYMATTR InstName C3
SYMATTR Value 22µ
SYMATTR SpiceLine Rser=2m
SYMBOL cap -384 48 R0
SYMATTR InstName C1
SYMATTR Value 100µ
SYMBOL res -192 192 R0
SYMATTR InstName R2
SYMATTR Value 28k
SYMBOL cap -288 48 R0
WINDOW 123 24 90 Left 2
SYMATTR Value2 x4
SYMATTR InstName C2
SYMATTR Value 10µ
SYMBOL zener 864 32 R180
WINDOW 0 24 64 Left 2
WINDOW 3 24 0 Left 2
SYMATTR InstName D4
SYMATTR Value TFZ13B
SYMATTR Description Diode
SYMATTR Type diode
SYMBOL res 976 -48 R0
SYMATTR InstName Rload
SYMATTR Value 6
SYMBOL diode 688 -96 R270
WINDOW 0 32 32 VTop 2
WINDOW 3 0 32 VBottom 2
SYMATTR InstName D1
SYMATTR Value PMEG6045ETP
TEXT 504 -192 Left 2 !K1 L1 L2 0.9992
TEXT 32 344 Left 2 !.tran 4m startup
TEXT 328 -432 Center 3 ;LT8306 60V Low-Iq No-Opto Isolated Flyback Controller\n12V/2A Isolated Flyback Converter EVAL-LT8306-AZ\nVin = 6V-36V, Vout = 12V, Iout = 2A
TEXT 528 -152 Left 2 ;11338-T267
TEXT -312 520 Left 2 ;Note:\n  If the simulation model is not found please update with the "Sync Release" command from the "Tools" menu.\n  It remains the customer's responsibility to verify proper and reliable operation in the actual application.\n  Component substitution and printed circuit board layout may significantly affect circuit performance or reliability.\n  Contact your local sales representative for assistance. This circuit is distributed to customers only for use with ADI parts.\n  Copyright © 2023 Analog Device Inc. All rights reserved.
TEXT -440 456 Left 2 !.MODEL PMEG6045ETP D(IS = 3E-006 N = 1 BV = 73 IBV = 1E-006 RS = 0.024 CJO = 1.049E-009 VJ = 0.3866 M = 0.4916 FC = 0 TT = 0 EG = 0.69 XTI = 2)
