Version 4
SHEET 1 1576 840
WIRE -272 -64 -384 -64
WIRE -96 -64 -272 -64
WIRE 144 -64 -96 -64
WIRE 176 -64 144 -64
WIRE 304 -64 256 -64
WIRE 416 -64 304 -64
WIRE 544 -64 480 -64
WIRE 608 -64 544 -64
WIRE 720 -64 672 -64
WIRE 848 -64 720 -64
WIRE 960 -64 848 -64
WIRE 1056 -64 960 -64
WIRE 1184 -64 1056 -64
WIRE -384 -16 -384 -64
WIRE -272 -16 -272 -64
WIRE -96 -16 -96 -64
WIRE 544 -16 544 -64
WIRE 144 16 144 -64
WIRE 304 16 304 -64
WIRE 1184 16 1184 -64
WIRE 720 32 720 -64
WIRE 848 32 848 -64
WIRE 960 32 960 -64
WIRE 1056 32 1056 -64
WIRE -384 80 -384 64
WIRE -272 80 -272 48
WIRE -96 80 -96 64
WIRE 64 80 -96 80
WIRE 400 80 384 80
WIRE 480 80 464 80
WIRE 544 112 544 64
WIRE 720 112 720 96
WIRE 1056 144 1056 96
WIRE 1184 144 1184 96
WIRE 64 176 -48 176
WIRE 848 176 848 112
WIRE 848 176 384 176
WIRE 960 176 960 96
WIRE 960 176 848 176
WIRE 848 224 848 176
WIRE -32 272 -48 272
WIRE 64 272 48 272
WIRE 432 272 384 272
WIRE 512 272 496 272
WIRE 608 272 592 272
WIRE 848 352 848 304
WIRE -32 368 -48 368
WIRE 64 368 32 368
WIRE 480 368 384 368
WIRE 224 448 224 432
FLAG -384 80 0
FLAG 1184 144 0
FLAG 1056 144 0
FLAG 480 368 0
FLAG 224 448 0
FLAG -48 272 0
FLAG -48 368 0
FLAG 608 272 0
FLAG 848 352 0
FLAG 1184 -64 OUT
FLAG -384 -64 IN
FLAG 480 80 0
FLAG 544 112 0
FLAG -96 160 0
FLAG -48 176 0
FLAG -272 80 0
FLAG 720 112 0
SYMBOL voltage -384 -32 R0
WINDOW 123 0 0 Left 2
WINDOW 39 0 0 Left 2
WINDOW 3 -111 161 Left 2
SYMATTR Value PWL(0 0 100u 12)
SYMATTR InstName V1
SYMBOL ind2 160 -48 R270
WINDOW 0 32 56 VTop 2
WINDOW 3 5 56 VBottom 2
SYMATTR InstName L1A
SYMATTR Value 2.5µ
SYMATTR SpiceLine Rser=33m
SYMATTR Type ind
SYMBOL schottky 608 -48 R270
WINDOW 0 32 32 VTop 2
WINDOW 3 0 32 VBottom 2
SYMATTR InstName D1
SYMATTR Value MBRS340
SYMATTR Description Diode
SYMATTR Type diode
SYMBOL cap 1040 32 R0
SYMATTR InstName C2
SYMATTR Value 22µ
SYMATTR SpiceLine Rser=7.5m
SYMBOL res 832 208 R0
SYMATTR InstName R2
SYMATTR Value 154k
SYMBOL cap 432 288 R270
WINDOW 0 32 32 VTop 2
WINDOW 3 0 32 VBottom 2
SYMATTR InstName C9
SYMATTR Value 330p
SYMBOL cap 32 352 R90
WINDOW 0 0 32 VBottom 2
WINDOW 3 32 32 VTop 2
SYMATTR InstName C6
SYMATTR Value 10n
SYMBOL res 64 256 R90
WINDOW 0 0 56 VBottom 2
WINDOW 3 32 56 VTop 2
SYMATTR InstName R5
SYMATTR Value 20k
SYMBOL cap 400 64 M90
WINDOW 0 0 32 VBottom 2
WINDOW 3 32 32 VTop 2
SYMATTR InstName C7
SYMATTR Value 1µ
SYMBOL res 1168 0 R0
SYMATTR InstName Rload
SYMATTR Value 11
SYMBOL ind2 560 80 R180
WINDOW 0 -52 75 Left 2
WINDOW 3 -53 44 Left 2
SYMATTR InstName L1B
SYMATTR Value 2.5µ
SYMATTR Type ind
SYMATTR SpiceLine Rser=33m
SYMBOL res 832 16 R0
SYMATTR InstName R1
SYMATTR Value 1Meg
SYMBOL res 608 256 R90
WINDOW 0 0 56 VBottom 2
WINDOW 3 32 56 VTop 2
SYMATTR InstName R6
SYMATTR Value 56k
SYMBOL cap 480 -80 R90
WINDOW 0 0 32 VBottom 2
WINDOW 3 32 32 VTop 2
SYMATTR InstName C1
SYMATTR Value 1µ
SYMATTR SpiceLine Rser=3.6m
SYMBOL res -112 -32 R0
WINDOW 0 -38 36 Left 2
WINDOW 3 -63 70 Left 2
SYMATTR InstName R3
SYMATTR Value 1Meg
SYMBOL res -112 64 R0
WINDOW 0 -37 38 Left 2
WINDOW 3 -99 69 Left 2
SYMATTR InstName R4
SYMATTR Value 1.15Meg
SYMBOL PowerProducts\\LT8333 224 224 R0
SYMATTR InstName U1
SYMBOL cap 944 32 R0
SYMATTR InstName C5
SYMATTR Value 4.7p
SYMBOL cap -288 -16 R0
SYMATTR InstName C4
SYMATTR Value 10µ
SYMATTR SpiceLine Rser=3.7m
SYMBOL cap 704 32 R0
SYMATTR InstName C14
SYMATTR Value 0.1µ
TEXT 560 456 Left 2 !.tran 5m startup
TEXT 368 -144 Left 2 !K1 L1A L1B .97
TEXT -256 520 Left 2 ;Note:\n  A smaller SS capacitor is being used to reduce simulation time. See datasheet for typical values.\n  If the simulation model is not found please update with the "Sync Release" command from the "Tools" menu.\n  It remains the customer's responsibility to verify proper and reliable operation in the actual application.\n  Component substitution and printed circuit board layout may significantly affect circuit performance or reliability.\n  Contact your local sales representative for assistance. This circuit is distributed to customers only for use with ADI parts.\n  Copyright © 2021 Analog Device Inc. All rights reserved.
TEXT 216 -320 Center 2 ;LT8333 - Low Iq 40V, 3A Boost/SEPIC/Inverting Converter\n12V SEPIC Converter\nInput = 3V to 26V, Output = 12V,  Iout = 1.1A @12Vin, Fsw = 2MHz
TEXT -88 304 Left 2 ;2MHz
TEXT -584 216 Left 2 ;SYNC/MODE pin:\nBURST = GND\nBURST + SSFM = 100k to GND\nPULSE SKIP = Float\nPULSE SKIP + SSFM = INTVcc\nSYNC = External Clock
