Version 4
SHEET 1 3296 5160
WIRE -304 -128 -384 -128
WIRE -224 -128 -304 -128
WIRE -64 -128 -224 -128
WIRE 32 -128 -64 -128
WIRE 304 -128 32 -128
WIRE 560 -128 304 -128
WIRE 720 -128 640 -128
WIRE 800 -128 720 -128
WIRE 928 -128 864 -128
WIRE 992 -128 928 -128
WIRE 1120 -128 992 -128
WIRE 1232 -128 1120 -128
WIRE -384 -112 -384 -128
WIRE -304 -112 -304 -128
WIRE -224 -112 -224 -128
WIRE 32 -112 32 -128
WIRE 992 -112 992 -128
WIRE 1232 -112 1232 -128
WIRE -64 -96 -64 -128
WIRE 304 -96 304 -128
WIRE 1120 -96 1120 -128
WIRE 720 -64 720 -128
WIRE 32 -32 32 -48
WIRE -384 -16 -384 -32
WIRE -304 -16 -304 -48
WIRE -224 -16 -224 -48
WIRE 992 -16 992 -48
WIRE 1120 -16 1120 -32
WIRE 1232 -16 1232 -32
WIRE -64 16 -64 -16
WIRE 96 16 -64 16
WIRE 560 16 512 16
WIRE 656 16 640 16
WIRE 672 16 656 16
WIRE -64 32 -64 16
WIRE 656 80 656 16
WIRE 656 80 512 80
WIRE -64 128 -64 112
WIRE 96 160 32 160
WIRE 720 160 720 32
WIRE 720 160 512 160
WIRE 32 176 32 160
WIRE 720 176 720 160
WIRE 928 176 928 -128
WIRE 0 272 -160 272
WIRE 96 272 80 272
WIRE 928 272 928 256
WIRE 928 272 512 272
WIRE 928 288 928 272
WIRE -96 384 -112 384
WIRE -16 384 -32 384
WIRE 96 384 64 384
WIRE 720 384 720 256
WIRE 720 384 512 384
WIRE 928 384 928 368
WIRE 720 400 720 384
WIRE 432 512 432 496
WIRE 592 512 432 512
WIRE 176 528 176 496
WIRE 304 528 304 496
WIRE 432 528 432 512
WIRE 176 624 176 592
WIRE 304 624 304 608
WIRE 432 624 432 592
FLAG -64 128 0
FLAG 176 624 0
FLAG -112 384 0
FLAG 432 624 0
FLAG 304 624 0
FLAG 928 384 0
FLAG 992 -16 0
FLAG 1232 -16 0
FLAG -384 -16 0
FLAG 1232 -128 OUT
FLAG -384 -128 IN
FLAG 720 400 0
FLAG -224 -16 0
FLAG 1120 -16 0
FLAG 32 -32 0
FLAG -304 -16 0
FLAG 32 176 0
FLAG -160 272 INTVcc
FLAG 592 512 INTVcc
SYMBOL ind 544 -112 R270
WINDOW 0 32 56 VTop 2
WINDOW 3 5 56 VBottom 2
SYMATTR InstName L1
SYMATTR Value 10µ
SYMATTR SpiceLine Rser=21m
SYMBOL res -80 -112 R0
WINDOW 3 27 99 Left 2
SYMATTR InstName R1
SYMATTR Value 1Meg
SYMBOL res -80 16 R0
SYMATTR InstName R2
SYMATTR Value 374K
SYMBOL LT8357 304 192 R0
SYMATTR InstName U1
SYMBOL res 96 256 R90
WINDOW 0 0 56 VBottom 2
WINDOW 3 32 56 VTop 2
SYMATTR InstName R12
SYMATTR Value 100K
SYMBOL cap 160 528 R0
SYMATTR InstName C9
SYMATTR Value .1µ
SYMBOL cap -32 400 M270
WINDOW 0 32 32 VTop 2
WINDOW 3 2 36 VBottom 2
SYMATTR InstName C7
SYMATTR Value .022µ
SYMBOL res 80 400 M270
WINDOW 0 32 56 VTop 2
WINDOW 3 0 56 VBottom 2
SYMATTR InstName R10
SYMATTR Value 13K
SYMBOL cap 416 528 R0
WINDOW 0 25 8 Left 2
SYMATTR InstName C10
SYMATTR Value 2.2µ
SYMBOL res 288 512 R0
WINDOW 3 37 89 Left 2
SYMATTR Value 174K
SYMATTR InstName R11
SYMBOL res 544 32 R270
WINDOW 0 32 56 VTop 2
WINDOW 3 0 56 VBottom 2
SYMATTR InstName R3
SYMATTR Value 5.1
SYMBOL schottky 800 -112 R270
WINDOW 0 32 32 VTop 2
WINDOW 3 0 32 VBottom 2
SYMATTR InstName D1
SYMATTR Value PMEG4030ER
SYMATTR Description Diode
SYMATTR Type diode
SYMATTR Prefix x
SYMBOL res 704 160 R0
SYMATTR Value .004
SYMATTR InstName R6
SYMBOL res 912 160 R0
SYMATTR InstName R7
SYMATTR Value 10Meg
SYMBOL res 912 272 R0
SYMATTR InstName R9
SYMATTR Value 432K
SYMBOL res 1216 -128 R0
SYMATTR Value 12
SYMATTR InstName Rload
SYMBOL voltage -384 -128 M0
WINDOW 123 0 0 Left 2
WINDOW 39 0 0 Left 2
WINDOW 3 25 88 Left 2
SYMATTR Value PWL(0 0 1m 12)
SYMATTR InstName V1
SYMBOL cap 976 -112 R0
WINDOW 3 41 34 Left 2
WINDOW 123 28 60 Left 2
SYMATTR Value 10µ
SYMATTR Value2 x2
SYMATTR InstName C12
SYMATTR SpiceLine Rser=0.002
SYMBOL cap -240 -112 R0
WINDOW 3 38 34 Left 2
WINDOW 123 28 60 Left 2
SYMATTR Value 22µ
SYMATTR Value2 x2
SYMATTR InstName C4
SYMBOL cap 16 -112 R0
SYMATTR InstName C8
SYMATTR Value 1µ
SYMBOL polcap 1104 -96 R0
SYMATTR InstName C16
SYMATTR Value 100µ
SYMATTR SpiceLine Rser=35m
SYMBOL polcap -320 -112 R0
SYMATTR InstName C3
SYMATTR Value 68µ
SYMATTR SpiceLine Rser=360m
SYMBOL nmos 672 -64 R0
SYMATTR InstName M1
SYMATTR Value BSZ0500NSI_L0
SYMATTR Prefix x
TEXT 760 448 Left 2 !.tran 8m startup
TEXT -288 664 Left 2 ;Note:\n  If the simulation model is not found please update with the "Sync Release" command from the "Tools" menu.\n  It remains the customer's responsibility to verify proper and reliable operation in the actual application.\n  Component substitution and printed circuit board layout may significantly affect circuit performance or reliability.\n  Small SS capacitor used to reduce simulation time. Refer to the data sheet for selecting the soft-start capacitor value.\n  Contact your local sales representative for assistance. This circuit is distributed to customers only for use with ADI parts.\n  Copyright © 2021 Analog Device Inc. All rights reserved.
TEXT 408 -208 Bottom 2 ;LT8357 - 60V 200KHz Low-IQ Boost, SEPIC and Flyback Controller with Spread Sprectrum\nLow EMI and Low Iq Boost Regulator\nInput: 3V to 60V     Output: 24V @ 2A, Fsw = 200kHz\nTurn on SSFM with SYNC/MODE pulled high.   This circuit most closely resembles EVAL-LT8357-AZ.
TEXT 328 640 Left 2 ;200kHz
TEXT 1128 72 Left 2 !.SUBCKT PMEG4030ER 1 2\n*\n* The resistor R1 does not reflect \n* a physical device.  Instead it\n* improves modeling in the reverse \n* mode of operation.\n*\nR1 1 2 4.936E+7\nD1 1 2 PMEG4030ER\n*\n.MODEL PMEG4030ER D\n+ IS = 1.656E-6\n+ N = 1\n+ BV = 44\n+ IBV = 0.001\n+ RS = 0.03034\n+ CJO = 5E-10\n+ VJ = 0.3122\n+ M = 0.4761\n+ FC = 0.5\n+ EG = 0.69\n+ XTI = 2\n.ENDS\n*
TEXT -1184 -192 Left 2 !.SUBCKT BSZ0500NSI_L0  drain  gate  source\n \nLg     gate  g1    3n\nLd     drain d1    1n\nLs     source s1   0.3n\nRs      s1    s2   433u\n \nRg     g1    g2     0.9\nM1      d2    g2    s2    s2    DMOS    L=1u   W=1u\n.MODEL DMOS NMOS ( KP= 1150.7  VTO=2.25  THETA=0  VMAX=1.5e5  ETA=0.01  LEVEL=3)\nRd     d1    d2    0.69m TC=6m\n \nDbd     s2    d2    Dbt\n.MODEL     Dbt    D(BV=33   M=0.77  CJO=0.81n  VJ=2.5V)\nRsp     s2    s3     0.7\nDbd1     s3    d2    Dbt1\n.MODEL     Dbt1    D(BV=1000   M=0.77  CJO=3.33n  VJ=2.5V)\nDbody   s2   21    DBODY\n.MODEL DBODY  D(IS=148p  N=1.12  RS=0.14u  EG=1.12  TT=3n)\nRdiode  d1  21    0.68m TC=6m\nDmgd   s2   22    DMGD\n.MODEL DMGD  D(IS=1.6u  N=1.1  RS=0.14u  EG=0.5  TT=1p)\nRmgd  d1  22 8.11m TC=3m\n \n.MODEL   sw    NMOS(VTO=0  KP=10   LEVEL=1)\nMaux      g2   c    a    a   sw\nMaux2     b    d    g2    g2   sw\nEaux      c    a    d2    g2   1\nEaux2     d    g2   d2    g2   -1\nCox       b    d2   1.07n\n.MODEL     DGD    D(M=0.8   CJO=1.07n   VJ=0.5)\nRpar      b    d2   1Meg\nDgd       a    d2   DGD\nRpar2     d2   a    10Meg\nCgs     g2    s2    2.4n\n \n.ENDS  BSZ0500NSI_L0
