Version 4
SHEET 1 880 680
WIRE -176 80 -288 80
WIRE -32 80 -176 80
WIRE 16 80 -32 80
WIRE 448 80 304 80
WIRE 560 80 448 80
WIRE 656 80 560 80
WIRE -288 112 -288 80
WIRE -176 112 -176 80
WIRE 560 160 560 144
WIRE -32 176 -32 80
WIRE 16 176 -32 176
WIRE 448 176 448 160
WIRE 448 176 304 176
WIRE 656 176 656 160
WIRE 448 192 448 176
WIRE -288 208 -288 192
WIRE -176 208 -176 176
WIRE 160 272 160 240
WIRE 448 304 448 272
FLAG 160 272 0
FLAG 448 304 0
FLAG 560 160 0
FLAG 656 176 0
FLAG -288 208 0
FLAG -176 208 0
FLAG -288 80 IN
FLAG 656 80 OUT
SYMBOL PowerProducts\\LT3014 160 112 R0
SYMATTR InstName U1
SYMBOL res 432 64 R0
SYMATTR InstName R1
SYMATTR Value 3.74Meg
SYMBOL res 432 176 R0
SYMATTR InstName R2
SYMATTR Value 1.21Meg
SYMBOL cap 544 80 R0
SYMATTR InstName C1
SYMATTR Value 0.47µ
SYMBOL res 640 64 R0
SYMATTR InstName RLoad
SYMATTR Value 250
SYMBOL voltage -288 96 R0
WINDOW 123 0 0 Left 2
WINDOW 39 0 0 Left 2
SYMATTR InstName V1
SYMATTR Value 24
SYMBOL cap -192 112 R0
SYMATTR InstName C2
SYMATTR Value 1µ
TEXT 160 16 Bottom 2 ;LT3014 - 20mA, 3V to 80V Low Dropout µPower Linear Regulator\nInput: 24V       Output: 5V @ 20mA
TEXT -322 320 Left 2 !.tran 10m startup
TEXT -320 360 Left 2 ;Note:\n  If the simulation model is not found please update with the "Sync Release" command from the "Tools" menu.\n  It remains the customer's responsibility to verify proper and reliable operation in the actual application.\n  Component substitution and printed circuit board layout may significantly affect circuit performance or reliability\n  Contact your local sales representative for assistance. This circuit is distributed to customers only for use with LTC parts\n  Copyright © 2007 Linear Technology Inc. All rights reserved.
