Version 4
SHEET 1 1804 720
WIRE -128 48 -240 48
WIRE -32 48 -128 48
WIRE 16 48 -32 48
WIRE 64 48 16 48
WIRE 496 48 320 48
WIRE 624 48 496 48
WIRE 736 48 624 48
WIRE -240 64 -240 48
WIRE -128 64 -128 48
WIRE 496 64 496 48
WIRE 624 64 624 48
WIRE 736 64 736 48
WIRE -240 160 -240 144
WIRE -128 160 -128 128
WIRE 16 160 16 48
WIRE 64 160 16 160
WIRE 496 160 496 144
WIRE 496 160 320 160
WIRE 624 160 624 128
WIRE 736 160 736 144
WIRE -32 176 -32 48
WIRE 496 176 496 160
WIRE -32 272 -32 256
WIRE 64 272 -32 272
WIRE 352 272 320 272
WIRE 432 272 416 272
WIRE 496 272 496 256
WIRE 64 384 48 384
WIRE 336 384 320 384
WIRE 432 384 416 384
WIRE 192 448 192 432
FLAG -240 160 0
FLAG 192 448 0
FLAG 432 384 0
FLAG 496 272 0
FLAG -240 48 IN
FLAG 736 48 OUT
FLAG 736 160 0
FLAG 624 160 0
FLAG 48 384 0
FLAG -128 160 0
FLAG 432 272 0
SYMBOL PowerProducts\\LT3033 192 208 R0
SYMATTR InstName U1
SYMBOL voltage -240 48 R0
WINDOW 123 0 0 Left 2
WINDOW 39 0 0 Left 2
SYMATTR InstName V1
SYMATTR Value 1.2
SYMBOL res 480 48 R0
SYMATTR InstName R1
SYMATTR Value 13.7K
SYMBOL res 480 160 R0
SYMATTR InstName R2
SYMATTR Value 3.92K
SYMBOL res 432 368 R90
WINDOW 0 0 56 VBottom 2
WINDOW 3 32 56 VTop 2
SYMATTR InstName R3
SYMATTR Value 442
SYMBOL res -48 160 R0
SYMATTR InstName R4
SYMATTR Value 100K
SYMBOL res 720 48 R0
SYMATTR InstName Rload
SYMATTR Value 300m
SYMBOL cap 608 64 R0
SYMATTR InstName C1
SYMATTR Value 10µ
SYMBOL cap 352 288 R270
WINDOW 0 32 32 VTop 2
WINDOW 3 0 32 VBottom 2
SYMATTR InstName C2
SYMATTR Value .01µ
SYMBOL cap -144 64 R0
SYMATTR InstName C3
SYMATTR Value 10µ
TEXT 544 392 Left 2 !.tran 2m startup
TEXT 280 -16 Bottom 2 ;LT3033 - 3A, 0.95V to 10V, Very Low Dropout Linear Regulator with Programmable Current Limit\n1.2V to 0.9V, 3A VLDO Regulator\nInput: 1V to 10V     Output: 0.9V @ 3A
TEXT -392 456 Left 2 ;Notes:\n  Current limited internally by Vin to Vout differential, refer to datasheet\n  If the simulation model is not found please update with the "Sync Release" command from the "Tools" menu.\n  It remains the customer's responsibility to verify proper and reliable operation in the actual application.\n  Component substitution and printed circuit board layout may significantly affect circuit performance or reliability.\n  Contact your local sales representative for assistance. This circuit is distributed to customers only for use with LTC parts.\n  Copyright ©2019 Analog Devices Inc. All rights reserved.
