Version 4
SHEET 1 1512 780
WIRE -160 0 -272 0
WIRE -80 0 -160 0
WIRE 416 0 -80 0
WIRE 576 0 464 0
WIRE 704 0 640 0
WIRE 816 0 704 0
WIRE -272 16 -272 0
WIRE -160 16 -160 0
WIRE 416 16 416 0
WIRE 464 16 464 0
WIRE 704 16 704 0
WIRE 816 16 816 0
WIRE -272 112 -272 96
WIRE -160 112 -160 80
WIRE 464 112 464 96
WIRE 704 112 704 80
WIRE 816 112 816 96
WIRE -80 176 -80 0
WIRE 128 176 -80 176
WIRE 416 176 416 96
WIRE 416 176 352 176
WIRE -80 192 -80 176
WIRE 416 192 416 176
WIRE 128 272 -80 272
WIRE 416 272 352 272
WIRE -80 288 -80 272
WIRE 48 368 32 368
WIRE 128 368 112 368
WIRE 464 368 352 368
WIRE 480 368 464 368
WIRE 576 368 560 368
WIRE -80 384 -80 368
WIRE 128 464 112 464
WIRE 368 464 352 464
WIRE 464 464 464 368
WIRE 464 464 448 464
FLAG -272 112 0
FLAG -80 384 0
FLAG -272 0 IN
FLAG 464 112 0
FLAG 704 112 0
FLAG 816 112 0
FLAG 816 0 OUT
FLAG -160 112 0
FLAG 32 368 0
FLAG 576 368 0
FLAG 112 464 0
SYMBOL voltage -272 0 R0
WINDOW 123 0 0 Left 2
WINDOW 39 0 0 Left 2
SYMATTR InstName V1
SYMATTR Value 24
SYMBOL res -96 176 R0
SYMATTR InstName R1
SYMATTR Value 1Meg
SYMBOL res -96 272 R0
SYMATTR InstName R2
SYMATTR Value 200K
SYMBOL ind2 400 0 R0
WINDOW 0 -1 46 Right 2
WINDOW 3 0 76 Right 2
SYMATTR InstName L1
SYMATTR Value 9µ
SYMATTR Type ind
SYMATTR SpiceLine Rser=36m Rpar=500k Cpar=4.7p
SYMBOL ind2 480 112 R180
WINDOW 0 -3 64 Right 2
WINDOW 3 1 34 Right 2
SYMATTR InstName L2
SYMATTR Value 9µ
SYMATTR Type ind
SYMATTR SpiceLine Rser=36m Cpar=0
SYMBOL res 400 176 R0
SYMATTR InstName R3
SYMATTR Value 118K
SYMBOL schottky 576 16 R270
WINDOW 0 32 32 VTop 2
WINDOW 3 0 32 VBottom 2
SYMATTR InstName D1
SYMATTR Value MBRS360
SYMATTR Description Diode
SYMATTR Type diode
SYMBOL cap 688 16 R0
WINDOW 3 39 32 Left 2
WINDOW 123 24 54 Left 2
SYMATTR InstName C1
SYMATTR Value 47µ
SYMATTR SpiceLine Rser=0.003
SYMATTR Value2 x3
SYMBOL cap -176 16 R0
WINDOW 3 26 52 Left 2
SYMATTR Value 22µ
SYMATTR InstName C2
SYMATTR SpiceLine V=50 Irms=4 Rser=0.001
SYMBOL cap 112 352 R90
WINDOW 0 0 32 VBottom 2
WINDOW 3 32 32 VTop 2
SYMATTR InstName C3
SYMATTR Value 1µ
SYMBOL PowerProducts\\LT3002 240 320 R0
SYMATTR InstName U1
SYMBOL res 576 352 R90
WINDOW 0 0 56 VBottom 2
WINDOW 3 32 56 VTop 2
SYMATTR InstName R4
SYMATTR Value 10K
SYMBOL res 464 448 R90
WINDOW 0 0 56 VBottom 2
WINDOW 3 32 56 VTop 2
SYMATTR InstName R5
SYMATTR Value 113K
SYMBOL res 800 0 R0
SYMATTR InstName Rload
SYMATTR Value 12
TEXT 440 -32 Bottom 2 !K1 L1 L2 0.999
TEXT 632 456 Left 2 !.tran 7.5m startup
TEXT 312 -72 Bottom 2 ;LT3002 - 36Vin No-Opto Isolated Flyback Converter with 65V/3.6A Switch\nµPower No-Opto Isolated Flyback Converter\nInput: 10V to 30V       Output: 12V @ 1A
TEXT -336 520 Left 2 ;Note:\n  If the simulation model is not found please update with the "Sync Release" command from the "Tools" menu.\n  It remains the customer's responsibility to verify proper and reliable operation in the actual application.\n  Component substitution and printed circuit board layout may significantly affect circuit performance or reliability.\n  Contact your local sales representative for assistance. This circuit is distributed to customers only for use with LTC parts.\n  Copyright © 2020 Analog Devices Inc. All rights reserved.
TEXT 440 0 Bottom 2 ;12387- T159 SUMIDA
TEXT 496 120 Left 2 ;Nps = 1:1
