Version 4
SHEET 1 1400 736
WIRE 80 -80 80 -96
WIRE 176 -80 176 -96
WIRE 352 -80 352 -96
WIRE 80 16 80 -16
WIRE 176 16 176 0
WIRE 176 16 80 16
WIRE 176 32 176 16
WIRE 352 32 352 0
WIRE 80 64 48 64
WIRE 480 96 432 96
WIRE 592 96 480 96
WIRE 688 96 592 96
WIRE 592 112 592 96
WIRE 688 112 688 96
WIRE -16 128 -176 128
WIRE 80 128 64 128
WIRE -176 144 -176 128
WIRE 480 144 480 96
WIRE 480 144 432 144
WIRE 480 176 480 144
WIRE 80 192 -80 192
WIRE 592 208 592 176
WIRE 688 208 688 192
WIRE -176 240 -176 224
WIRE 480 272 480 256
WIRE 480 272 432 272
WIRE 480 288 480 272
WIRE -80 320 -80 192
WIRE 16 320 -80 320
WIRE 80 320 16 320
WIRE -80 336 -80 320
WIRE 16 336 16 320
WIRE 480 384 480 368
WIRE -80 432 -80 416
WIRE 16 432 16 400
FLAG 480 384 0
FLAG -80 432 0
FLAG 48 64 0
FLAG 176 -96 0
FLAG 352 -96 0
FLAG 688 208 0
FLAG 592 208 0
FLAG 80 -96 0
FLAG 16 432 0
FLAG 688 96 OUT
FLAG -80 320 IN
FLAG -176 240 0
SYMBOL voltage -80 320 R0
WINDOW 123 24 138 Left 2
WINDOW 39 24 117 Left 2
SYMATTR Value -5
SYMATTR InstName V1
SYMBOL res 160 -96 R0
SYMATTR InstName R1
SYMATTR Value 33.2K
SYMBOL cap 576 112 R0
SYMATTR InstName C1
SYMATTR Value 10µ
SYMBOL cap 64 -80 R0
SYMATTR InstName C2
SYMATTR Value 4.7µ
SYMBOL LT3094 256 144 R0
SYMATTR InstName U1
SYMBOL cap 0 336 R0
SYMATTR InstName C3
SYMATTR Value 10µ
SYMBOL res 464 160 R0
SYMATTR InstName R2
SYMATTR Value 453K
SYMBOL res 464 272 R0
SYMATTR InstName R3
SYMATTR Value 49.9K
SYMBOL res 336 -96 R0
SYMATTR InstName R4
SYMATTR Value 7.5K
SYMBOL res 80 112 R90
WINDOW 0 0 56 VBottom 2
WINDOW 3 32 56 VTop 2
SYMATTR InstName R5
SYMATTR Value 200K
SYMBOL voltage -176 128 R0
WINDOW 123 24 138 Left 2
WINDOW 39 24 117 Left 2
SYMATTR InstName V2
SYMATTR Value 3.3
SYMBOL res 672 96 R0
SYMATTR InstName Rload
SYMATTR Value 6.6
TEXT 552 416 Left 2 !.tran 1 startup
TEXT 248 -120 Bottom 2 ;LT3094 - -20V, 500mA, Ultralow Noise, Ultrahigh PSRR Negative Linear Regulator\nUltralow Noise, Ultrahigh PSRR Negative LDO Regulator\nInput: -20V to -3.8V        Output: -3.3V @ 500mA
TEXT -352 448 Left 2 ;Notes:\n  Current limited internally by Vin to Vout differential, refer to datasheet\n  If the simulation model is not found please update with the "Sync Release" command from the "Tools" menu.\n  It remains the customer's responsibility to verify proper and reliable operation in the actual application.\n  Component substitution and printed circuit board layout may significantly affect circuit performance or reliability.\n  Contact your local sales representative for assistance. This circuit is distributed to customers only for use with LTC parts.\n  Copyright ©2019 Analog Devices Inc. All rights reserved.
