Version 4
SHEET 1 1320 968
WIRE -288 -1296 -384 -1296
WIRE -240 -1296 -288 -1296
WIRE -160 -1296 -240 -1296
WIRE -48 -1296 -160 -1296
WIRE -384 -1280 -384 -1296
WIRE -240 -1280 -240 -1296
WIRE -160 -1216 -160 -1296
WIRE -48 -1216 -160 -1216
WIRE -384 -1184 -384 -1200
WIRE -240 -1184 -240 -1216
WIRE 528 -1152 496 -1152
WIRE 576 -1152 528 -1152
WIRE 624 -1152 576 -1152
WIRE 848 -1152 704 -1152
WIRE 912 -1152 848 -1152
WIRE 576 -1136 576 -1152
WIRE 912 -1136 912 -1152
WIRE 528 -1072 528 -1152
WIRE 528 -1072 496 -1072
WIRE 576 -1040 576 -1072
WIRE 912 -1040 912 -1056
WIRE 64 -976 64 -992
WIRE 64 -976 -352 -976
WIRE 192 -976 192 -992
WIRE 288 -976 288 -992
WIRE 64 -960 64 -976
WIRE 64 -880 64 -896
WIRE 288 -880 288 -896
WIRE -288 -848 -288 -1296
WIRE 416 -848 416 -992
WIRE 416 -848 -288 -848
WIRE -288 -768 -288 -848
WIRE -240 -768 -288 -768
WIRE -160 -768 -240 -768
WIRE -64 -768 -160 -768
WIRE -240 -752 -240 -768
WIRE -160 -688 -160 -768
WIRE -64 -688 -160 -688
WIRE -240 -656 -240 -688
WIRE -160 -656 -160 -688
WIRE 512 -624 480 -624
WIRE 560 -624 512 -624
WIRE 624 -624 560 -624
WIRE 736 -624 704 -624
WIRE 848 -624 848 -1152
WIRE 848 -624 736 -624
WIRE 560 -608 560 -624
WIRE 512 -544 512 -624
WIRE 512 -544 480 -544
WIRE 736 -544 736 -624
WIRE -160 -528 -160 -576
WIRE -160 -528 -400 -528
WIRE -64 -528 -160 -528
WIRE 560 -512 560 -544
WIRE -352 -448 -352 -976
WIRE -112 -448 -352 -448
WIRE 48 -448 48 -464
WIRE 48 -448 -112 -448
WIRE 176 -448 176 -464
WIRE 400 -448 400 -464
WIRE 736 -448 736 -464
WIRE 736 -448 400 -448
WIRE -112 -432 -112 -448
WIRE 48 -432 48 -448
WIRE 272 -432 272 -464
WIRE 736 -432 736 -448
WIRE -112 -336 -112 -368
WIRE 48 -336 48 -352
WIRE 272 -336 272 -352
WIRE 736 -336 736 -352
WIRE -288 -304 -288 -768
WIRE 400 -304 400 -448
WIRE 400 -304 -288 -304
WIRE -288 -224 -288 -304
WIRE -240 -224 -288 -224
WIRE -160 -224 -240 -224
WIRE -64 -224 -160 -224
WIRE -240 -208 -240 -224
WIRE -160 -144 -160 -224
WIRE -64 -144 -160 -144
WIRE -240 -112 -240 -144
WIRE 512 -80 480 -80
WIRE 560 -80 512 -80
WIRE 624 -80 560 -80
WIRE 848 -80 848 -624
WIRE 848 -80 704 -80
WIRE 560 -64 560 -80
WIRE 512 0 512 -80
WIRE 512 0 480 0
WIRE 560 32 560 0
WIRE -352 96 -352 -448
WIRE 48 96 48 80
WIRE 48 96 -352 96
WIRE 176 96 176 80
WIRE 272 96 272 80
WIRE 48 112 48 96
WIRE 48 192 48 176
WIRE 272 192 272 176
WIRE -288 224 -288 -224
WIRE 400 224 400 80
WIRE 400 224 -288 224
WIRE -288 304 -288 224
WIRE -240 304 -288 304
WIRE -160 304 -240 304
WIRE -64 304 -160 304
WIRE -240 320 -240 304
WIRE -160 384 -160 304
WIRE -64 384 -160 384
WIRE -240 416 -240 384
WIRE 512 448 480 448
WIRE 560 448 512 448
WIRE 624 448 560 448
WIRE 848 448 848 -80
WIRE 848 448 704 448
WIRE -64 464 -384 464
WIRE 560 464 560 448
WIRE 512 528 512 448
WIRE 512 528 480 528
WIRE 560 560 560 528
WIRE -352 624 -352 96
WIRE 48 624 48 608
WIRE 48 624 -352 624
WIRE 176 624 176 608
WIRE 272 624 272 608
WIRE 48 640 48 624
WIRE 48 720 48 704
WIRE 272 720 272 704
WIRE -288 752 -288 304
WIRE 400 752 400 608
WIRE 400 752 -288 752
FLAG 192 -976 0
FLAG -384 -1184 0
FLAG -384 -1296 IN
FLAG 288 -880 0
FLAG 64 -880 0
FLAG 576 -1040 0
FLAG 912 -1040 0
FLAG 912 -1152 OUT
FLAG -240 -1184 0
FLAG 176 -448 0
FLAG 736 -336 0
FLAG 272 -336 0
FLAG -112 -336 0
FLAG 560 -512 0
FLAG -240 -656 0
FLAG 176 96 0
FLAG 272 192 0
FLAG 48 192 0
FLAG 560 32 0
FLAG -240 -112 0
FLAG 176 624 0
FLAG 272 720 0
FLAG 48 720 0
FLAG 560 560 0
FLAG -240 416 0
FLAG -384 464 VIOC
FLAG -400 -528 PG
FLAG 48 -336 0
SYMBOL voltage -384 -1296 R0
WINDOW 123 0 0 Left 2
WINDOW 39 0 0 Left 2
SYMATTR InstName V1
SYMATTR Value 5
SYMBOL res 272 -992 R0
SYMATTR InstName R4
SYMATTR Value 249
SYMBOL cap 48 -960 R0
WINDOW 39 24 77 Left 2
SYMATTR Value .47µ
SYMATTR InstName C1
SYMBOL cap 560 -1136 R0
SYMATTR InstName C2
SYMATTR Value 10µ
SYMATTR SpiceLine Rser=3m
SYMBOL res 896 -1152 R0
SYMATTR InstName Rload
SYMATTR Value 1.65
SYMBOL PowerProducts\\LT3045-1 192 -1152 R0
SYMATTR InstName U1
SYMBOL res 720 -560 R0
SYMATTR InstName R6
SYMATTR Value 453K
SYMBOL res 720 -448 R0
SYMATTR InstName R7
SYMATTR Value 49.9K
SYMBOL res 256 -448 R0
SYMATTR InstName R8
SYMATTR Value 249
SYMBOL cap -128 -432 R0
WINDOW 39 24 77 Left 2
SYMATTR Value 4.7µ
SYMATTR InstName C4
SYMBOL cap 544 -608 R0
SYMATTR InstName C5
SYMATTR Value 10µ
SYMATTR SpiceLine Rser=3m
SYMBOL cap -256 -752 R0
SYMATTR InstName C6
SYMATTR Value .1µ
SYMATTR SpiceLine Rser=3m
SYMBOL PowerProducts\\LT3045-1 176 -624 R0
SYMATTR InstName U2
SYMBOL res 256 80 R0
SYMATTR InstName R12
SYMATTR Value 249
SYMBOL cap 32 112 R0
WINDOW 39 24 77 Left 2
SYMATTR Value .47µ
SYMATTR InstName C7
SYMBOL cap 544 -64 R0
SYMATTR InstName C8
SYMATTR Value 10µ
SYMATTR SpiceLine Rser=3m
SYMBOL cap -256 -208 R0
SYMATTR InstName C9
SYMATTR Value 4.7µ
SYMATTR SpiceLine Rser=3m
SYMBOL PowerProducts\\LT3045-1 176 -80 R0
SYMATTR InstName U3
SYMBOL res 256 608 R0
SYMATTR InstName R16
SYMATTR Value 249
SYMBOL cap 32 640 R0
WINDOW 39 24 77 Left 2
SYMATTR Value .47µ
SYMATTR InstName C10
SYMBOL cap 544 464 R0
SYMATTR InstName C11
SYMATTR Value 10µ
SYMATTR SpiceLine Rser=3m
SYMBOL cap -256 320 R0
SYMATTR InstName C12
SYMATTR Value .1µ
SYMATTR SpiceLine Rser=3m
SYMBOL PowerProducts\\LT3045-1 176 448 R0
SYMATTR InstName U4
SYMBOL cap -256 -1280 R0
SYMATTR InstName C3
SYMATTR Value .1µ
SYMBOL res 720 -1168 R90
WINDOW 0 0 56 VBottom 2
WINDOW 3 32 56 VTop 2
SYMATTR InstName R2
SYMATTR Value 20m
SYMBOL res 720 -640 R90
WINDOW 0 0 56 VBottom 2
WINDOW 3 32 56 VTop 2
SYMATTR InstName R3
SYMATTR Value 20m
SYMBOL res 720 -96 R90
WINDOW 0 0 56 VBottom 2
WINDOW 3 32 56 VTop 2
SYMATTR InstName R17
SYMATTR Value 20m
SYMBOL res 720 432 R90
WINDOW 0 0 56 VBottom 2
WINDOW 3 32 56 VTop 2
SYMATTR InstName R10
SYMATTR Value 20m
SYMBOL res -176 -672 R0
SYMATTR InstName R1
SYMATTR Value 200K
SYMBOL res 32 -448 R0
SYMATTR InstName R5
SYMATTR Value 8.25K
TEXT 256 -1368 Bottom 2 ;LT3045-1 - 20V, 500mA, Ultralow Noise, Ultrahigh PSRR LDO Regulator with VIOC Control\nParalleled Ultralow Noise, Ultrahigh PSRR LDO Regulator\nInput: 3.5V to 20V       Output: 3.3V @ 2A
TEXT -432 768 Left 2 ;Notes:\n  Current limited internally by Vin to Vout differential, refer to datasheet\n  If the simulation model is not found please update with the "Sync Release" command from the "Tools" menu.\n  It remains the customer's responsibility to verify proper and reliable operation in the actual application.\n  Component substitution and printed circuit board layout may significantly affect circuit performance or reliability.\n  Contact your local sales representative for assistance. This circuit is distributed to customers only for use with ADI parts.\n  Copyright © 2018 Analog Devices. All rights reserved.
TEXT 680 736 Left 2 !.tran 1 startup
