Version 4
SHEET 1 1188 680
WIRE -160 -288 -256 -288
WIRE -80 -288 -160 -288
WIRE 32 -288 -80 -288
WIRE -256 -272 -256 -288
WIRE -160 -272 -160 -288
WIRE -80 -208 -80 -288
WIRE 32 -208 -80 -208
WIRE -256 -176 -256 -192
WIRE -160 -176 -160 -208
WIRE 592 -144 576 -144
WIRE 624 -144 592 -144
WIRE 736 -144 624 -144
WIRE 832 -144 736 -144
WIRE 32 -128 16 -128
WIRE 736 -128 736 -144
WIRE 832 -128 832 -144
WIRE 592 -64 592 -144
WIRE 592 -64 576 -64
WIRE 624 -64 624 -144
WIRE -80 -48 -80 -208
WIRE -64 -48 -80 -48
WIRE 32 -48 16 -48
WIRE 736 -32 736 -64
WIRE 832 -32 832 -48
WIRE 144 32 144 16
WIRE 144 32 48 32
WIRE 272 32 272 16
WIRE 368 32 368 16
WIRE 496 32 496 16
WIRE 624 32 624 16
WIRE 624 32 496 32
WIRE 48 48 48 32
WIRE 144 48 144 32
WIRE 624 48 624 32
WIRE 368 128 368 112
WIRE 48 144 48 112
WIRE 144 144 144 128
WIRE 624 144 624 128
WIRE 48 240 48 224
FLAG 272 32 0
FLAG -256 -176 0
FLAG -256 -288 IN
FLAG 624 144 0
FLAG 368 128 0
FLAG 48 144 0
FLAG 736 -32 0
FLAG 832 -32 0
FLAG 832 -144 OUT
FLAG -160 -176 0
FLAG 144 144 0
FLAG 16 -128 VIOC
SYMBOL voltage -256 -288 R0
WINDOW 123 0 0 Left 2
WINDOW 39 0 0 Left 2
SYMATTR InstName V1
SYMATTR Value 5
SYMBOL res -80 -32 R270
WINDOW 0 32 56 VTop 2
WINDOW 3 0 56 VBottom 2
SYMATTR InstName R1
SYMATTR Value 200K
SYMBOL res 608 -80 R0
SYMATTR InstName R2
SYMATTR Value 453K
SYMBOL res 608 32 R0
SYMATTR InstName R3
SYMATTR Value 49.9K
SYMBOL res 352 16 R0
SYMATTR InstName R4
SYMATTR Value 249
SYMBOL cap 32 48 R0
WINDOW 39 24 77 Left 2
SYMATTR Value 4.7µ
SYMATTR InstName C1
SYMBOL cap 720 -128 R0
SYMATTR InstName C2
SYMATTR Value 10µ
SYMATTR SpiceLine Rser=3m
SYMBOL res 816 -144 R0
SYMATTR InstName Rload
SYMATTR Value 6.6
SYMBOL cap -176 -272 R0
SYMATTR InstName C3
SYMATTR Value 4.7µ
SYMATTR SpiceLine Rser=3m
SYMBOL PowerProducts\\LT3045-1 272 -144 R0
SYMATTR InstName U1
SYMBOL res 128 32 R0
SYMATTR InstName R5
SYMATTR Value 33.2K
TEXT 744 144 Left 2 !.tran 1 startup
TEXT 336 -360 Bottom 2 ;LT3045-1 - 20V, 500mA, Ultralow Noise, Ultrahigh PSRR Linear Regulator with VIOC Control\nUltralow Noise LDO\nInput: 3.8V to 20V       Output: 3.3V @ 500mA
TEXT -280 160 Left 2 ;Notes:\n  Current limited internally by Vin to Vout differential, refer to datasheet.\n  If the simulation model is not found please update with the "Sync Release" command from the "Tools" menu.\n  It remains the customer's responsibility to verify proper and reliable operation in the actual application.\n  Component substitution and printed circuit board layout may significantly affect circuit performance or reliability.\n  Contact your local sales representative for assistance. This circuit is distributed to customers only for use with ADI parts.\n  Copyright © 2018 Analog Devices. All rights reserved.
