Version 4
SHEET 1 1124 680
WIRE -96 64 -208 64
WIRE 224 64 -96 64
WIRE -208 80 -208 64
WIRE -96 80 -96 64
WIRE 224 96 224 64
WIRE 0 160 -16 160
WIRE 96 160 80 160
WIRE 464 160 352 160
WIRE 512 160 464 160
WIRE 608 160 512 160
WIRE 704 160 608 160
WIRE -208 176 -208 160
WIRE -96 176 -96 144
WIRE 512 176 512 160
WIRE 608 176 608 160
WIRE 704 176 704 160
WIRE 0 256 -16 256
WIRE 96 256 80 256
WIRE 368 256 352 256
WIRE 464 256 464 160
WIRE 464 256 448 256
WIRE 512 272 512 240
WIRE 608 272 608 256
WIRE 704 272 704 256
WIRE 224 336 224 320
WIRE 320 336 224 336
WIRE 224 352 224 336
WIRE 320 352 320 336
WIRE 224 448 224 432
WIRE 320 448 320 416
FLAG -16 160 0
FLAG -16 256 0
FLAG 224 448 0
FLAG -208 176 0
FLAG -208 64 IN
FLAG 704 160 OUT
FLAG 512 272 0
FLAG 704 272 0
FLAG -96 176 0
FLAG 320 448 0
FLAG 608 272 0
SYMBOL res 96 144 R90
WINDOW 0 0 56 VBottom 2
WINDOW 3 32 56 VTop 2
SYMATTR InstName R1
SYMATTR Value 1K
SYMBOL res 96 240 R90
WINDOW 0 0 56 VBottom 2
WINDOW 3 32 56 VTop 2
SYMATTR InstName R2
SYMATTR Value 1K
SYMBOL res 208 336 R0
SYMATTR InstName R3
SYMATTR Value 24K
SYMBOL res 464 240 R90
WINDOW 0 0 56 VBottom 2
WINDOW 3 32 56 VTop 2
SYMATTR InstName R4
SYMATTR Value 5.1K
SYMBOL voltage -208 64 R0
WINDOW 123 0 0 Left 2
WINDOW 39 0 0 Left 2
SYMATTR InstName V1
SYMATTR Value 3.3
SYMBOL cap 496 176 R0
SYMATTR InstName C1
SYMATTR Value 10µ
SYMATTR SpiceLine V=6.3 Irms=0 Rser=0.001 Lser=0 mfg="TDK" pn="C3216X5ROJ106M" type="X5R"
SYMBOL res 688 160 R0
SYMATTR InstName Rload
SYMATTR Value 1.5
SYMBOL LT3089 224 208 R0
SYMATTR InstName U1
SYMBOL cap 304 352 R0
SYMATTR InstName C2
SYMATTR Value .01µ
SYMBOL res 592 160 R0
SYMATTR InstName R5
SYMATTR Value 390
SYMBOL cap -112 80 R0
SYMATTR InstName C3
SYMATTR Value 1µ
TEXT 432 352 Left 2 !.tran .1 startup
TEXT 232 40 Bottom 2 ;LT3089 - 800mA Single Resistor Rugged Linear Regulator with Monitors\nWide Safe Operating Area Supply\nInput: 2.85V to 40V        Output: 1.2V @ 800mA
TEXT -352 456 Left 2 ;Notes:\n  Current limited internally by Vin to Vout differential, refer to datasheet\n  If the simulation model is not found please update with the "Sync Release" command from the "Tools" menu.\n  It remains the customer's responsibility to verify proper and reliable operation in the actual application.\n  Component substitution and printed circuit board layout may significantly affect circuit performance or reliability.\n  Contact your local sales representative for assistance. This circuit is distributed to customers only for use with ADI parts.\n  Copyright ©2020 Analog Devices Inc. All rights reserved.
