Version 4
SHEET 1 1212 948
WIRE -352 -272 -448 -272
WIRE -256 -272 -352 -272
WIRE -64 -272 -256 -272
WIRE 48 -272 -64 -272
WIRE 64 -272 48 -272
WIRE 176 -272 144 -272
WIRE 256 -272 176 -272
WIRE 416 -272 336 -272
WIRE 592 -272 416 -272
WIRE 640 -272 592 -272
WIRE 784 -272 736 -272
WIRE 896 -272 784 -272
WIRE 992 -272 896 -272
WIRE -448 -256 -448 -272
WIRE -352 -256 -352 -272
WIRE -256 -256 -256 -272
WIRE 416 -256 416 -272
WIRE 784 -256 784 -272
WIRE 896 -256 896 -272
WIRE 368 -176 288 -176
WIRE 896 -176 896 -192
WIRE -448 -160 -448 -176
WIRE -352 -160 -352 -192
WIRE -256 -160 -256 -176
WIRE -160 -160 -256 -160
WIRE 784 -160 784 -176
WIRE 784 -160 736 -160
WIRE -256 -144 -256 -160
WIRE -64 -144 -64 -272
WIRE 48 -144 48 -272
WIRE 176 -144 176 -272
WIRE 288 -144 288 -176
WIRE 416 -144 416 -160
WIRE 784 -144 784 -160
WIRE 592 -80 592 -272
WIRE 592 -80 368 -80
WIRE -256 -48 -256 -64
WIRE -160 -48 -160 -160
WIRE -144 -48 -160 -48
WIRE 784 -48 784 -64
WIRE 400 -16 368 -16
WIRE 592 -16 592 -80
WIRE 592 -16 464 -16
WIRE -144 16 -160 16
WIRE 656 48 656 -224
WIRE 656 48 368 48
WIRE -160 80 -160 16
WIRE -144 80 -160 80
WIRE 736 112 736 -160
WIRE 736 112 368 112
WIRE 992 128 992 -272
WIRE 992 128 960 128
WIRE -160 144 -160 80
WIRE -144 144 -160 144
WIRE 992 144 992 128
WIRE 960 176 960 128
WIRE 960 176 368 176
WIRE -352 208 -368 208
WIRE -144 208 -272 208
WIRE 992 240 992 224
WIRE 992 240 368 240
WIRE -240 272 -256 272
WIRE -144 272 -176 272
WIRE 992 288 992 240
WIRE 944 304 368 304
WIRE -240 352 -256 352
WIRE -144 352 -160 352
WIRE 400 368 368 368
WIRE 512 368 480 368
WIRE 992 416 992 384
WIRE -256 432 -256 352
WIRE -240 432 -256 432
WIRE -144 432 -160 432
WIRE 512 432 512 368
WIRE 512 432 368 432
WIRE -336 496 -352 496
WIRE -256 496 -256 432
WIRE -256 496 -272 496
WIRE -144 496 -256 496
WIRE 400 496 368 496
WIRE 512 496 512 432
WIRE 512 496 464 496
WIRE 992 528 992 480
WIRE -80 592 -80 576
WIRE 16 592 16 576
WIRE 112 592 112 576
WIRE 304 592 304 576
WIRE 208 608 208 576
WIRE 16 688 16 672
WIRE 208 688 208 672
WIRE 304 688 304 672
WIRE 304 768 304 752
FLAG 112 592 0
FLAG 16 688 0
FLAG 208 688 0
FLAG 304 768 0
FLAG -448 -160 0
FLAG -256 -48 0
FLAG -352 496 0
FLAG 416 -144 0
FLAG 896 -176 0
FLAG 784 -48 0
FLAG 992 528 0
FLAG -256 272 0
FLAG -448 -272 IN
FLAG -80 592 0
FLAG -368 208 0
FLAG 992 -272 OUT
FLAG -352 -160 0
SYMBOL res 0 576 R0
SYMATTR Value 28K
SYMATTR InstName R1
SYMBOL cap 192 608 R0
SYMATTR InstName C1
SYMATTR Value .01µ
SYMBOL voltage -448 -272 R0
WINDOW 123 24 138 Left 2
WINDOW 39 24 117 Left 2
SYMATTR InstName V1
SYMATTR Value 12
SYMBOL res 48 -256 R270
WINDOW 0 32 56 VTop 2
WINDOW 3 0 56 VBottom 2
SYMATTR InstName R2
SYMATTR Value 3m
SYMBOL res -272 -272 R0
SYMATTR InstName R3
SYMATTR Value 499K
SYMBOL res -272 -160 R0
SYMATTR InstName R4
SYMATTR Value 226K
SYMBOL cap -272 480 R90
WINDOW 0 0 32 VBottom 2
WINDOW 3 32 32 VTop 2
SYMATTR InstName C2
SYMATTR Value 10µ
SYMBOL cap 400 0 R270
WINDOW 0 32 32 VTop 2
WINDOW 3 0 32 VBottom 2
SYMATTR InstName C3
SYMATTR Value .1µ
SYMBOL ind 240 -256 R270
WINDOW 0 32 56 VTop 2
WINDOW 3 5 56 VBottom 2
SYMATTR InstName L1
SYMATTR Value 10µ
SYMATTR SpiceLine Rser=14.6m
SYMBOL res 976 128 R0
SYMATTR InstName R5
SYMATTR Value 125m
SYMBOL LED 976 416 R0
WINDOW 123 24 85 Left 2
SYMATTR Value2 N=9
SYMATTR InstName D1
SYMATTR Value LUW-W5AP
SYMATTR Description Diode
SYMATTR Type diode
SYMBOL res 768 -272 R0
SYMATTR InstName R6
SYMATTR Value 1Meg
SYMBOL res 768 -160 R0
SYMATTR InstName R7
SYMATTR Value 36.5K
SYMBOL cap -176 256 R90
WINDOW 0 2 32 VBottom 2
WINDOW 3 30 32 VTop 2
SYMATTR InstName C4
SYMATTR Value .022µ
SYMBOL ind 384 384 R270
WINDOW 0 32 56 VTop 2
WINDOW 3 5 56 VBottom 2
SYMATTR InstName L2
SYMATTR Value 47µ
SYMATTR SpiceLine Rser=0.5
SYMBOL cap 464 512 M270
WINDOW 0 32 32 VTop 2
WINDOW 3 0 32 VBottom 2
SYMATTR InstName C5
SYMATTR Value .1µ
SYMBOL LT3762 112 208 R0
SYMATTR InstName U1
SYMBOL cap 288 688 R0
WINDOW 39 24 77 Left 2
SYMATTR Value .01µ
SYMATTR InstName C6
SYMBOL nmos 368 -256 R0
WINDOW 0 56 28 Left 2
WINDOW 3 61 62 Left 2
SYMATTR InstName M1
SYMATTR Value BSC018N04LS
SYMBOL pmos 944 384 M180
WINDOW 0 58 67 Left 2
WINDOW 3 57 26 Left 2
SYMATTR InstName M2
SYMATTR Value Si7113DN
SYMBOL nmos 736 -224 M270
WINDOW 0 91 34 VRight 2
WINDOW 3 67 122 VLeft 2
SYMATTR InstName M3
SYMATTR Value BSC018N04LS
SYMBOL voltage -256 208 R90
WINDOW 0 -32 56 VBottom 2
WINDOW 3 32 56 VTop 2
SYMATTR InstName V2
SYMATTR Value 2.5
SYMBOL res -144 336 R90
WINDOW 0 4 58 VBottom 2
WINDOW 3 30 58 VTop 2
SYMATTR InstName R8
SYMATTR Value 100K
SYMBOL res -144 416 R90
WINDOW 0 4 56 VBottom 2
WINDOW 3 28 56 VTop 2
SYMATTR InstName R9
SYMATTR Value 100K
SYMBOL cap 880 -256 R0
WINDOW 3 37 31 Left 2
WINDOW 123 31 52 Left 2
SYMATTR Value 10µ
SYMATTR Value2 x4
SYMATTR InstName C7
SYMATTR SpiceLine Rser=12m
SYMBOL cap -368 -256 R0
WINDOW 3 37 34 Left 2
WINDOW 123 26 56 Left 2
SYMATTR Value 10µ
SYMATTR Value2 x2
SYMATTR InstName C8
SYMATTR SpiceLine Rser=12m
SYMBOL res 288 576 R0
SYMATTR InstName R10
SYMATTR Value 2.2K
TEXT 624 544 Left 2 !.tran 4m startup
TEXT -368 776 Left 2 ;Notes:\n  If the simulation model is not found please update with the "Sync Release" command from the "Tools" menu.\n  It remains the customer's responsibility to verify proper and reliable operation in the actual application.\n  Component substitution and printed circuit board layout may significantly affect circuit performance or reliability.\n  Contact your local sales representative for assistance. This circuit is distributed to customers only for use with LTC parts.\n  Copyright © 2018 Analog Devices Inc. All rights reserved.
TEXT 232 -400 Center 2 ;LT3762 - 60V Synchronous Boost LED Controller\n64W High Efficiency Step-Up LED Driver\nInput: 4V to 28V       Output: 32V @ 2A, Fsw = 300kHz
