Version 4
SHEET 1 1392 840
WIRE -304 -304 -432 -304
WIRE -208 -304 -304 -304
WIRE -128 -304 -208 -304
WIRE -96 -304 -128 -304
WIRE -16 -304 -96 -304
WIRE 64 -304 -16 -304
WIRE 240 -304 144 -304
WIRE 320 -304 240 -304
WIRE 560 -304 384 -304
WIRE 656 -304 560 -304
WIRE 720 -304 656 -304
WIRE 560 -288 560 -304
WIRE -432 -272 -432 -304
WIRE -304 -272 -304 -304
WIRE -208 -272 -208 -304
WIRE -96 -272 -96 -304
WIRE 720 -272 720 -304
WIRE 240 -224 240 -304
WIRE 720 -192 720 -208
WIRE -432 -176 -432 -192
WIRE -304 -176 -304 -208
WIRE -208 -176 -208 -208
WIRE -128 -176 -128 -304
WIRE -16 -176 -16 -304
WIRE 48 -176 -16 -176
WIRE 480 -176 432 -176
WIRE 560 -176 560 -208
WIRE 560 -176 480 -176
WIRE -128 -64 -128 -96
WIRE -80 -64 -128 -64
WIRE 48 -64 -80 -64
WIRE 656 -64 656 -304
WIRE 656 -64 432 -64
WIRE 656 -48 656 -64
WIRE 48 48 -80 48
WIRE 656 48 656 32
WIRE 656 48 432 48
WIRE -80 64 -80 48
WIRE 656 144 656 48
WIRE -112 160 -176 160
WIRE -80 160 -80 144
WIRE -80 160 -112 160
WIRE -48 160 -80 160
WIRE 48 160 -48 160
WIRE 608 160 432 160
WIRE -48 176 -48 160
WIRE -176 240 -176 224
WIRE -48 272 -48 256
WIRE 48 272 -48 272
WIRE 464 272 432 272
WIRE 576 272 544 272
WIRE 576 288 576 272
WIRE 656 352 656 240
WIRE 576 368 576 352
WIRE -112 384 -112 160
WIRE 48 384 -112 384
WIRE 512 384 432 384
WIRE 512 416 512 384
WIRE 656 464 656 416
WIRE 112 480 112 448
WIRE 368 480 368 448
WIRE 240 496 240 448
WIRE 240 624 240 576
FLAG 368 480 0
FLAG 240 624 0
FLAG -176 240 0
FLAG 112 480 0
FLAG -432 -176 0
FLAG -432 -304 IN
FLAG -304 -176 0
FLAG -208 -176 0
FLAG -96 -208 0
FLAG 720 -192 0
FLAG 720 -304 OUT
FLAG 480 -96 0
FLAG 656 464 0
FLAG 576 368 0
FLAG 512 416 0
FLAG -80 16 0
SYMBOL PowerProducts\\LT3950 240 96 R0
SYMATTR InstName U1
SYMBOL res 224 480 R0
WINDOW 0 39 41 Left 2
WINDOW 3 39 76 Left 2
SYMATTR InstName R1
SYMATTR Value 49.9k
SYMBOL res -96 48 R0
SYMATTR InstName R2
SYMATTR Value 100k
SYMBOL cap -160 224 R180
WINDOW 0 -29 49 Left 2
WINDOW 3 -23 12 Left 2
SYMATTR InstName C1
SYMATTR Value 1µ
SYMBOL res -64 160 R0
SYMATTR InstName R3
SYMATTR Value 100k
SYMBOL ind 48 -288 R270
WINDOW 0 66 57 VTop 2
WINDOW 3 67 58 VBottom 2
SYMATTR InstName L1
SYMATTR Value 6.8µ
SYMBOL voltage -432 -288 R0
WINDOW 123 0 0 Left 0
WINDOW 39 0 0 Left 0
SYMATTR InstName V1
SYMATTR Value 12
SYMBOL polcap -320 -272 R0
WINDOW 3 24 56 Left 2
SYMATTR Value 22µ
SYMATTR InstName C4
SYMATTR Description Capacitor
SYMATTR Type cap
SYMATTR SpiceLine V=63 Irms=240m Rser=1 Lser=0 mfg="Panasonic" pn="ECA1JFQ220" type="Al electrolytic"
SYMBOL cap -224 -272 R0
SYMATTR InstName C5
SYMATTR Value 4.7µ
SYMBOL res -144 -192 R0
SYMATTR InstName R5
SYMATTR Value 499k
SYMBOL res -96 -80 R0
SYMATTR InstName R6
SYMATTR Value 124k
SYMBOL cap -112 -272 R0
WINDOW 3 29 46 Left 2
SYMATTR Value 1µ
SYMATTR InstName C6
SYMBOL schottky 320 -288 R270
WINDOW 0 98 28 VBottom 2
WINDOW 3 51 27 VCenter 2
SYMATTR InstName D1
SYMATTR Value PMEG6010AED
SYMATTR Description Diode
SYMATTR Type diode
SYMBOL cap 704 -272 R0
WINDOW 3 38 34 Left 2
WINDOW 0 54 7 Center 2
SYMATTR Value 4.7µ
SYMATTR InstName C7
SYMATTR SpiceLine V=100V Rser=0
SYMBOL res 544 -304 R0
SYMATTR InstName R8
SYMATTR Value 1Meg
SYMBOL res 464 -80 M180
WINDOW 0 36 76 Left 2
WINDOW 3 36 40 Left 2
SYMATTR InstName R9
SYMATTR Value 41.2k
SYMBOL pmos 608 240 M180
WINDOW 0 60 76 Left 2
WINDOW 3 59 40 Left 2
SYMATTR InstName M1
SYMATTR Value Si9407AEY
SYMBOL res 640 -64 R0
SYMATTR InstName R10
SYMATTR Value 0.75
SYMBOL res 560 256 R90
WINDOW 0 -28 56 VBottom 2
WINDOW 3 -30 58 VTop 2
SYMATTR InstName R11
SYMATTR Value 62k
SYMBOL cap 560 288 R0
WINDOW 0 40 21 Left 2
WINDOW 3 33 46 Left 2
SYMATTR InstName C8
SYMATTR Value 270p
SYMBOL LED 640 352 R0
WINDOW 123 39 97 Left 2
SYMATTR Value2 n=8
SYMATTR InstName Cree1
SYMATTR Value XPEB_WHT
SYMATTR Description Diode
SYMATTR Type diode
TEXT -392 648 Left 2 ;Note: \n  If the simulation model is not found please update with the "Sync Release" command from the "Tools" menu.\n  It remains the customer's responsibility to verify proper and reliable operation in the actual application.\n  Component substitution and printed circuit board layout may significantly affect circuit performance or reliability.\n  Contact your local sales representative for assistance. This circuit is distributed to customers only for use with ADI parts.\n  Copyright © 2022 Analog Devices Inc. All rights reserved.
TEXT 264 -416 Bottom 2 ;LT3950 - 60V, 1.5A LED Driver with Internal Exponential Scale Dimming
TEXT 832 392 Left 2 !.MODEL XPEB_WHT D\n+ IS=5.01824E-16 \n+ N=3.36413016 \n+ RS=0.244130334 \n+ XTI=40.92995615 \n+ IKF=0 + EG=2.5000
TEXT -480 -352 Left 2 ;3V - 45V
TEXT 664 -352 Left 2 ;30V 330mA
TEXT 264 592 Left 2 ;2MHz
TEXT 832 312 Left 2 !.tran 1.5m
