Version 4
SHEET 1 1852 840
WIRE -112 -352 -304 -352
WIRE 48 -352 -112 -352
WIRE 496 -352 464 -352
WIRE -112 -320 -112 -352
WIRE -304 -272 -304 -352
WIRE 48 -272 -32 -272
WIRE 496 -272 496 -288
WIRE 496 -272 464 -272
WIRE 560 -272 496 -272
WIRE 672 -272 640 -272
WIRE 736 -272 672 -272
WIRE 832 -272 736 -272
WIRE 848 -272 832 -272
WIRE 944 -272 928 -272
WIRE 1024 -272 944 -272
WIRE 1040 -272 1024 -272
WIRE -112 -208 -112 -240
WIRE -32 -208 -32 -272
WIRE -32 -208 -112 -208
WIRE 16 -192 -32 -192
WIRE 48 -192 16 -192
WIRE 672 -192 672 -272
WIRE 672 -192 464 -192
WIRE 736 -192 736 -208
WIRE -112 -176 -112 -208
WIRE -32 -160 -32 -192
WIRE 16 -112 16 -192
WIRE 48 -112 16 -112
WIRE 672 -112 464 -112
WIRE 688 -112 672 -112
WIRE 800 -112 768 -112
WIRE 1040 -96 1040 -272
WIRE -112 -80 -112 -96
WIRE -32 -80 -32 -96
WIRE 800 -80 800 -112
WIRE 48 -32 -304 -32
WIRE 832 -32 832 -272
WIRE 832 -32 464 -32
WIRE -304 32 -304 -32
WIRE -128 48 -160 48
WIRE 0 48 -48 48
WIRE 48 48 0 48
WIRE 944 48 944 -272
WIRE 944 48 464 48
WIRE 48 128 -32 128
WIRE 496 128 464 128
WIRE 1040 128 1040 -32
WIRE -304 160 -304 112
WIRE -32 160 -32 128
WIRE 48 208 -32 208
WIRE 512 208 464 208
WIRE 592 208 512 208
WIRE 1120 208 1088 208
WIRE 1040 240 1040 224
WIRE -32 288 -32 272
WIRE 48 288 -32 288
WIRE 512 288 512 272
WIRE 512 288 464 288
WIRE 512 320 512 288
WIRE -32 336 -32 288
WIRE 192 352 192 320
WIRE 192 464 192 432
FLAG 192 464 0
FLAG -112 -80 0
FLAG -32 -80 0
FLAG -32 160 0
FLAG -32 336 0
FLAG 336 464 0
FLAG 512 320 0
FLAG 736 -192 0
FLAG 800 -80 0
FLAG -304 -192 0
FLAG 1024 -272 VLED
FLAG -304 -352 VIN
FLAG 1120 208 PWM
FLAG 1040 240 0
FLAG -304 160 0
FLAG -304 -32 PWM
FLAG 592 208 INTVCC
FLAG -160 48 INTVCC
FLAG 0 48 _FAULT
SYMBOL PowerProducts\\LT3935 256 -32 R0
SYMATTR InstName U1
SYMBOL res 176 336 R0
SYMATTR InstName R1
SYMATTR Value 45.3K
SYMBOL res 320 304 R0
SYMATTR InstName R2
SYMATTR Value 10k
SYMBOL res -128 -336 R0
SYMATTR InstName R4
SYMATTR Value 169K
SYMBOL res -96 -80 R180
WINDOW 0 36 76 Left 2
WINDOW 3 36 40 Left 2
SYMATTR InstName R5
SYMATTR Value 34K
SYMBOL res 672 -96 R270
WINDOW 0 32 56 VTop 2
WINDOW 3 0 56 VBottom 2
SYMATTR InstName R6
SYMATTR Value 124k
SYMBOL res 688 -96 R180
WINDOW 0 36 76 Left 2
WINDOW 3 36 40 Left 2
SYMATTR InstName R7
SYMATTR Value 1Meg
SYMBOL res -32 32 R90
WINDOW 0 0 56 VBottom 2
WINDOW 3 32 56 VTop 2
SYMATTR InstName R8
SYMATTR Value 100k
SYMBOL res 944 -288 R90
WINDOW 0 0 56 VBottom 2
WINDOW 3 32 56 VTop 2
SYMATTR InstName R9
SYMATTR Value 0.025
SYMBOL cap 320 400 R0
SYMATTR InstName C1
SYMATTR Value 150p
SYMBOL cap -48 -160 R0
SYMATTR InstName C2
SYMATTR Value 1µ
SYMBOL cap -48 208 R0
WINDOW 0 27 18 Left 2
SYMATTR InstName C6
SYMATTR Value 1n
SYMBOL cap 496 208 R0
WINDOW 0 33 16 Left 2
SYMATTR InstName C7
SYMATTR Value 2.2µ
SYMBOL cap 480 -352 R0
SYMATTR InstName C8
SYMATTR Value 0.1µ
SYMBOL cap 720 -272 R0
WINDOW 0 38 21 Left 2
WINDOW 3 33 69 Left 2
WINDOW 123 40 45 Left 2
SYMATTR InstName C9
SYMATTR Value 6.8µ
SYMATTR Value2 x2
SYMATTR SpiceLine Rser=3m
SYMBOL ind 544 -256 R270
WINDOW 0 32 56 VTop 2
WINDOW 3 5 56 VBottom 2
SYMATTR InstName L1
SYMATTR Value 1µ
SYMATTR SpiceLine Rser=0.013
SYMBOL LTCSymbols\\NMOS 1088 128 M0
WINDOW 0 56 32 Left 2
WINDOW 3 56 72 Left 2
SYMATTR InstName M1
SYMATTR Value RTR040N03
SYMBOL LED 1024 -96 R0
SYMATTR Value2 N=1
SYMATTR InstName D1
SYMATTR Value LUW-W5AP
SYMBOL voltage -304 -288 R0
WINDOW 123 0 0 Left 0
WINDOW 39 0 0 Left 0
SYMATTR InstName V1
SYMATTR Value 12
SYMBOL voltage -304 16 R0
WINDOW 123 0 0 Left 0
WINDOW 39 0 0 Left 0
WINDOW 3 -153 204 Left 2
WINDOW 0 -57 8 Left 2
SYMATTR Value PULSE(0 5 1m 100n 100n 1m 4m 5)
SYMATTR InstName V2
TEXT 632 392 Left 2 !.tran 12m startup
TEXT -280 544 Left 2 ;Note:\n  If the simulation model is not found please update with the "Sync Release" command from the "Tools" menu.\n  It remains the customer's responsibility to verify proper and reliable operation in the actual application.\n  Component substitution and printed circuit board layout may significantly affect circuit performance or reliability.\n  Contact your local sales representative for assistance. This circuit is distributed to customers only for use with LTC parts.\n  Copyright © 2022 Analog Devices Inc. All rights reserved.
TEXT 264 -440 Bottom 2 ;LT3935 - 40VIN 36VOUT 4A Synchronous Buck LED Driver with Silent Switcher
