Version 4
SHEET 1 2096 980
WIRE 128 -272 96 -272
WIRE 224 -272 192 -272
WIRE 256 -272 224 -272
WIRE 368 -272 336 -272
WIRE 400 -272 368 -272
WIRE 496 -272 464 -272
WIRE 96 -208 96 -272
WIRE 224 -208 224 -272
WIRE 368 -208 368 -272
WIRE 496 -208 496 -272
WIRE -304 -128 -416 -128
WIRE -128 -128 -304 -128
WIRE -16 -128 -128 -128
WIRE 0 -128 -16 -128
WIRE 656 -128 592 -128
WIRE 768 -128 656 -128
WIRE 864 -128 768 -128
WIRE -416 -112 -416 -128
WIRE 656 -112 656 -128
WIRE 768 -112 768 -128
WIRE -128 -96 -128 -128
WIRE -16 -48 -16 -128
WIRE 0 -48 -16 -48
WIRE -416 -16 -416 -32
WIRE 656 -16 656 -32
WIRE 656 -16 592 -16
WIRE 768 -16 768 -48
WIRE 656 0 656 -16
WIRE -224 32 -240 32
WIRE -128 32 -128 -16
WIRE -128 32 -144 32
WIRE 0 32 -128 32
WIRE -304 48 -304 -128
WIRE 656 96 656 80
WIRE -400 144 -416 144
WIRE -304 144 -304 128
WIRE -304 144 -320 144
WIRE 0 144 -304 144
WIRE 864 144 864 -128
WIRE 864 144 592 144
WIRE 864 224 592 224
WIRE -240 256 -256 256
WIRE -144 256 -176 256
WIRE 0 256 -144 256
WIRE 864 320 864 224
WIRE -144 336 -144 256
WIRE -112 336 -144 336
WIRE 0 336 -32 336
WIRE 816 336 592 336
WIRE -96 416 -112 416
WIRE -16 416 -32 416
WIRE 0 416 -16 416
WIRE 608 416 592 416
WIRE 864 448 864 416
WIRE -16 496 -16 416
WIRE 0 496 -16 496
WIRE 624 496 592 496
WIRE 720 496 704 496
WIRE 800 496 784 496
WIRE 864 528 864 512
WIRE -144 576 -144 336
WIRE 0 576 -144 576
WIRE 624 576 592 576
WIRE 720 576 688 576
WIRE 0 656 -16 656
WIRE 624 656 592 656
WIRE 720 656 704 656
WIRE 0 736 -16 736
WIRE 608 736 592 736
FLAG -256 256 0
FLAG -112 416 0
FLAG -16 736 0
FLAG -416 144 0
FLAG -240 32 0
FLAG -416 -16 0
FLAG 656 96 0
FLAG 768 -16 0
FLAG 800 496 0
FLAG 720 576 0
FLAG 720 656 0
FLAG 608 736 0
FLAG 864 528 0
FLAG -16 656 0
FLAG -416 -128 IN
FLAG 864 -128 OUT
SYMBOL LT3942 304 288 R0
WINDOW 0 0 -240 Center 2
SYMATTR InstName U1
SYMBOL ind 240 -256 R270
WINDOW 0 32 56 VTop 2
WINDOW 3 5 56 VBottom 2
SYMATTR InstName L1
SYMATTR Value 3.3µ
SYMBOL cap 192 -288 R90
WINDOW 0 0 32 VBottom 2
WINDOW 3 32 32 VTop 2
SYMATTR InstName C1
SYMATTR Value 100n
SYMBOL cap 464 -288 R90
WINDOW 0 0 32 VBottom 2
WINDOW 3 32 32 VTop 2
SYMATTR InstName C2
SYMATTR Value 100n
SYMBOL res -16 320 R90
WINDOW 0 0 56 VBottom 2
WINDOW 3 32 56 VTop 2
SYMATTR InstName R1
SYMATTR Value 100K
SYMBOL res -144 -112 R0
SYMATTR InstName R2
SYMATTR Value 402K
SYMBOL cap -176 240 R90
WINDOW 0 0 32 VBottom 2
WINDOW 3 32 32 VTop 2
SYMATTR InstName C3
SYMATTR Value 4.7µ
SYMBOL cap -32 400 R90
WINDOW 0 0 32 VBottom 2
WINDOW 3 32 32 VTop 2
SYMATTR InstName C4
SYMATTR Value .22µ
SYMBOL res -128 16 R90
WINDOW 0 0 56 VBottom 2
WINDOW 3 32 56 VTop 2
SYMATTR InstName R3
SYMATTR Value 324K
SYMBOL res -320 32 R0
SYMATTR InstName R4
SYMATTR Value 1Meg
SYMBOL res -304 128 R90
WINDOW 0 0 56 VBottom 2
WINDOW 3 32 56 VTop 2
SYMATTR InstName R5
SYMATTR Value 34.8K
SYMBOL voltage -416 -128 R0
WINDOW 123 0 0 Left 2
WINDOW 39 0 0 Left 2
SYMATTR InstName V1
SYMATTR Value 12
SYMBOL res 640 -128 R0
SYMATTR InstName R6
SYMATTR Value 1Meg
SYMBOL res 640 -16 R0
SYMATTR InstName R7
SYMATTR Value 64.9K
SYMBOL cap 752 -112 R0
SYMATTR InstName C6
SYMATTR Value 4.7µ
SYMBOL res 848 128 R0
SYMATTR InstName R8
SYMATTR Value 100m
SYMBOL LED 848 448 R0
WINDOW 123 28 65 Left 2
WINDOW 3 88 39 Left 2
SYMATTR Value2 N=4
SYMATTR Value LUW-W5AP
SYMATTR InstName LED1
SYMATTR Description Diode
SYMATTR Type diode
SYMBOL pmos 816 416 M180
WINDOW 0 60 64 Left 2
WINDOW 3 61 29 Left 2
SYMATTR InstName M1
SYMATTR Value Si7409DN
SYMBOL res 720 480 R90
WINDOW 0 0 56 VBottom 2
WINDOW 3 32 56 VTop 2
SYMATTR InstName R9
SYMATTR Value 3.9K
SYMBOL cap 784 480 R90
WINDOW 0 0 32 VBottom 2
WINDOW 3 32 32 VTop 2
SYMATTR InstName C7
SYMATTR Value 3.3n
SYMBOL cap 688 560 R90
WINDOW 0 0 32 VBottom 2
WINDOW 3 26 33 VTop 2
SYMATTR InstName C8
SYMATTR Value 10n
SYMBOL res 720 640 R90
WINDOW 0 3 56 VBottom 2
WINDOW 3 32 56 VTop 2
SYMATTR InstName R10
SYMATTR Value 14.3K
TEXT 296 -320 Bottom 2 ;LT3942 - 36V, 2A Synchronous Buck-Boost Converter and LED Driver\n93% Efficient 13W Buck-Boost LED Driver\nInput: 8V to 36V     Output: 13V LED @ 1A, Fsw = 2MHz
TEXT 728 736 Left 2 !.tran 1.5m startup
TEXT -464 -88 Right 2 ;Input can go down to 3V\nwith reduced ouput power
TEXT -304 824 Left 2 ;Note:\n  If the simulation model is not found please update with the "Sync Release" command from the "Tools" menu.\n  It remains the customer's responsibility to verify proper and reliable operation in the actual application.\n  Component substitution and printed circuit board layout may significantly affect circuit performance or reliability.\n  Contact your local sales representative for assistance. This circuit is distributed to customers only for use with ADI parts.\n  Copyright © 2020 Analog Device Inc. All rights reserved.
