Version 4
SHEET 1 1268 800
WIRE -64 -48 -160 -48
WIRE 16 -48 -64 -48
WIRE 128 -48 16 -48
WIRE 160 -48 128 -48
WIRE 288 -48 240 -48
WIRE 352 -48 288 -48
WIRE 512 -48 416 -48
WIRE 592 -48 512 -48
WIRE 720 -48 656 -48
WIRE 800 -48 720 -48
WIRE 896 -48 800 -48
WIRE -160 -32 -160 -48
WIRE -64 -32 -64 -48
WIRE 800 -32 800 -48
WIRE 896 -32 896 -48
WIRE 512 -16 512 -48
WIRE 128 16 128 -48
WIRE 288 16 288 -48
WIRE -160 64 -160 48
WIRE -64 64 -64 32
WIRE 800 64 800 32
WIRE 896 64 896 48
WIRE 16 80 16 -48
WIRE 48 80 16 80
WIRE 384 80 368 80
WIRE 464 80 448 80
WIRE 720 80 720 -48
WIRE 512 96 512 64
WIRE 48 176 32 176
WIRE 720 176 720 160
WIRE 720 176 368 176
WIRE 720 192 720 176
WIRE -64 272 -80 272
WIRE 48 272 16 272
WIRE 384 272 368 272
WIRE 720 288 720 272
WIRE 112 352 112 336
WIRE 208 352 208 336
WIRE 304 352 304 336
WIRE 112 432 112 416
WIRE 304 448 304 432
WIRE 304 528 304 512
FLAG 112 432 0
FLAG 208 352 0
FLAG -80 272 0
FLAG -160 64 0
FLAG 720 288 0
FLAG 800 64 0
FLAG 896 64 0
FLAG 464 80 0
FLAG -160 -48 IN
FLAG 896 -48 OUT
FLAG 304 528 0
FLAG 32 176 0
FLAG 384 272 0
FLAG 512 96 0
FLAG -64 64 0
SYMBOL cap 96 352 R0
SYMATTR InstName C1
SYMATTR Value 2000p
SYMBOL res 32 256 R90
WINDOW 0 0 56 VBottom 2
WINDOW 3 32 56 VTop 2
SYMATTR InstName R1
SYMATTR Value 107K
SYMBOL VOLTAGE -160 -48 R0
WINDOW 0 27 22 Left 2
WINDOW 123 0 0 Left 2
WINDOW 39 0 0 Left 2
SYMATTR InstName V1
SYMATTR Value 60
SYMBOL ind2 144 -32 R270
WINDOW 0 32 56 VTop 2
WINDOW 3 5 56 VBottom 2
SYMATTR InstName L1
SYMATTR Value 47µ
SYMATTR SpiceLine Rser=6m
SYMATTR Type ind
SYMBOL schottky 592 -32 R270
WINDOW 0 32 32 VTop 2
WINDOW 3 -1 43 VBottom 2
SYMATTR InstName D1
SYMATTR Value RB068L150
SYMATTR Description Diode
SYMATTR Type diode
SYMBOL res 704 64 R0
SYMATTR InstName R2
SYMATTR Value 1Meg
SYMBOL res 704 176 R0
SYMATTR InstName R3
SYMATTR Value 34.5K
SYMBOL cap 384 96 R270
WINDOW 0 32 32 VTop 2
WINDOW 3 0 32 VBottom 2
SYMATTR InstName C2
SYMATTR Value 1µ
SYMBOL cap 288 448 R0
WINDOW 39 24 77 Left 2
SYMATTR Value 6800p
SYMATTR InstName C3
SYMBOL cap 784 -32 R0
WINDOW 3 25 56 Left 2
SYMATTR Value 10µ
SYMATTR SpiceLine Rser=9m
SYMATTR InstName C4
SYMBOL LT8365 208 176 R0
SYMATTR InstName U1
SYMBOL ind2 528 80 R180
WINDOW 0 -33 70 Left 2
WINDOW 3 -36 29 Left 2
SYMATTR InstName L2
SYMATTR Value 47µ
SYMATTR SpiceLine Rser=6m
SYMATTR Type ind
SYMBOL cap 352 -32 R270
WINDOW 0 32 32 VTop 2
WINDOW 3 0 32 VBottom 2
SYMATTR InstName C5
SYMATTR Value 1µ
SYMBOL cap -80 -32 R0
SYMATTR InstName C6
SYMATTR Value 10µ
SYMBOL res 288 336 R0
SYMATTR InstName R4
SYMATTR Value 33K
SYMBOL res 880 -48 R0
SYMATTR InstName Rload
SYMATTR Value 240
TEXT 456 376 Left 2 !.tran 2m startup
TEXT 312 -112 Left 2 !K L1 L2 .999
TEXT 448 -136 Bottom 2 ;LT8365 - Low Iq Boost/SEPIC/Inverting DC/DC Converter with 1.5A, 150V Switch\n48V SEPIC Converter\nInput: 12V to 60V     Output: 48V @ 200mA to 300mA, Fsw = 400KHz
TEXT -264 544 Left 2 ;Note:\n  A smaller SS capacitor is being used to reduce simulation time. See datasheet for typical values.\n  If the simulation model is not found please update with the "Sync Release" command from the "Tools" menu.\n  It remains the customer's responsibility to verify proper and reliable operation in the actual application.\n  Component substitution and printed circuit board layout may significantly affect circuit performance or reliability.\n  Contact your local sales representative for assistance. This circuit is distributed to customers only for use with LTC parts.\n  Copyright © 2020 Analog Devices Inc. All rights reserved.
