Version 4
SHEET 1 1956 1096
WIRE 48 -336 16 -336
WIRE 144 -336 112 -336
WIRE 176 -336 144 -336
WIRE 288 -336 256 -336
WIRE 320 -336 288 -336
WIRE 416 -336 384 -336
WIRE 16 -288 16 -336
WIRE 144 -288 144 -336
WIRE 288 -288 288 -336
WIRE 416 -288 416 -336
WIRE -400 -208 -496 -208
WIRE -288 -208 -400 -208
WIRE -128 -208 -288 -208
WIRE -80 -208 -128 -208
WIRE 576 -208 512 -208
WIRE 624 -208 576 -208
WIRE 720 -208 624 -208
WIRE 816 -208 720 -208
WIRE 880 -208 816 -208
WIRE 1040 -208 960 -208
WIRE 1056 -208 1040 -208
WIRE -496 -192 -496 -208
WIRE 1056 -192 1056 -208
WIRE -288 -176 -288 -208
WIRE 720 -176 720 -208
WIRE -496 -96 -496 -112
WIRE 880 -80 880 -208
WIRE 880 -80 512 -80
WIRE 1056 -80 1056 -112
WIRE -288 -48 -288 -96
WIRE -80 -48 -288 -48
WIRE -288 0 -288 -48
WIRE 960 0 960 -208
WIRE 960 0 512 0
WIRE 720 80 720 -96
WIRE 720 80 512 80
WIRE 752 80 720 80
WIRE 864 80 832 80
WIRE -288 96 -288 80
WIRE 864 112 864 80
WIRE 544 160 512 160
WIRE -400 176 -416 176
WIRE -288 176 -400 176
WIRE -160 176 -288 176
WIRE -80 176 -160 176
WIRE -288 192 -288 176
WIRE 624 192 624 -208
WIRE 688 192 624 192
WIRE -80 256 -160 256
WIRE 624 256 624 192
WIRE 624 256 512 256
WIRE -288 336 -336 336
WIRE -160 336 -288 336
WIRE -80 336 -160 336
WIRE 656 336 512 336
WIRE 816 336 736 336
WIRE -80 416 -160 416
WIRE 704 416 512 416
WIRE -256 448 -288 448
WIRE -160 448 -160 416
WIRE -160 448 -176 448
WIRE -288 464 -288 448
WIRE -400 496 -400 176
WIRE -160 496 -400 496
WIRE -80 496 -160 496
WIRE 560 496 512 496
WIRE 672 496 640 496
WIRE 672 528 672 496
WIRE -160 576 -160 496
WIRE -80 576 -160 576
WIRE 560 576 512 576
WIRE -80 656 -144 656
WIRE 560 656 512 656
WIRE 224 752 224 736
FLAG 576 -144 0
FLAG 816 -144 0
FLAG 864 112 0
FLAG 688 256 0
FLAG -288 256 0
FLAG -288 400 0
FLAG 224 752 0
FLAG 672 528 0
FLAG 816 400 0
FLAG 1056 -80 0
FLAG -288 96 0
FLAG 1040 -208 OUT
FLAG 704 480 0
FLAG 560 576 0
FLAG -288 464 0
FLAG -416 176 INTVcc
FLAG -336 336 Vref
FLAG -400 -144 0
FLAG -128 -144 0
FLAG -496 -96 0
FLAG -496 -208 IN
SYMBOL cap 112 -352 R90
WINDOW 0 0 32 VBottom 2
WINDOW 3 32 32 VTop 2
SYMATTR InstName C1
SYMATTR Value 0.1µ
SYMBOL cap 384 -352 R90
WINDOW 0 0 32 VBottom 2
WINDOW 3 32 32 VTop 2
SYMATTR InstName C2
SYMATTR Value 0.1µ
SYMBOL cap 832 400 R180
WINDOW 0 -31 52 Left 2
WINDOW 3 -69 14 Left 2
SYMATTR InstName C3
SYMATTR Value 4700p
SYMBOL cap 592 -144 R180
WINDOW 0 4 90 Left 2
WINDOW 3 22 -38 Left 2
WINDOW 123 -13 -38 Left 2
SYMATTR InstName C7
SYMATTR Value 0.1µ
SYMATTR Value2 x2
SYMATTR SpiceLine Rser=0.002
SYMBOL cap 832 -144 R180
WINDOW 0 5 85 Left 2
WINDOW 3 16 -37 Left 2
WINDOW 123 -25 -35 Left 2
SYMATTR InstName C8
SYMATTR Value 22µ
SYMATTR Value2 x3
SYMATTR SpiceLine Rser=0.01
SYMBOL cap -272 256 R180
WINDOW 0 27 56 Left 2
WINDOW 3 30 15 Left 2
SYMATTR InstName C10
SYMATTR Value 4.7µ
SYMBOL cap -272 400 R180
WINDOW 0 -1 89 Left 2
WINDOW 3 32 16 Left 2
SYMATTR InstName C11
SYMATTR Value 0.47µ
SYMBOL cap 720 480 R180
WINDOW 0 -44 61 Left 2
WINDOW 3 -48 18 Left 2
SYMATTR InstName C12
SYMATTR Value 10n
SYMBOL cap 704 256 R180
WINDOW 0 -50 51 Left 2
WINDOW 3 -60 9 Left 2
SYMATTR InstName C13
SYMATTR Value 0.1µ
SYMATTR SpiceLine Rser=0.001
SYMBOL res -176 160 R0
WINDOW 0 30 -15 Left 2
WINDOW 3 32 47 Left 2
SYMATTR InstName R3
SYMATTR Value 100k
SYMBOL res -176 320 R0
WINDOW 0 31 36 Left 2
WINDOW 3 35 72 Left 2
SYMATTR InstName R4
SYMATTR Value 100k
SYMBOL res 656 480 R90
WINDOW 0 0 56 VBottom 2
WINDOW 3 32 56 VTop 2
SYMATTR InstName R5
SYMATTR Value 143k
SYMBOL res 752 320 R90
WINDOW 0 0 56 VBottom 2
WINDOW 3 32 56 VTop 2
SYMATTR InstName R6
SYMATTR Value 12k
SYMBOL res 736 -80 R180
WINDOW 0 36 76 Left 2
WINDOW 3 36 40 Left 2
SYMATTR InstName R7
SYMATTR Value 110k
SYMBOL res 736 96 R270
WINDOW 0 32 56 VTop 2
WINDOW 3 0 56 VBottom 2
SYMATTR InstName R8
SYMATTR Value 10k
SYMBOL res 864 -192 R270
WINDOW 0 32 56 VTop 2
WINDOW 3 0 56 VBottom 2
SYMATTR InstName R9
SYMATTR Value 5m
SYMBOL ind 160 -320 R270
WINDOW 0 32 56 VTop 2
WINDOW 3 5 56 VBottom 2
SYMATTR InstName L1
SYMATTR Value 6.8µ
SYMATTR SpiceLine Rser=0.02
SYMBOL res 1040 -208 R0
SYMATTR InstName Load
SYMATTR Value 10
SYMBOL res -304 -192 R0
SYMATTR InstName R1
SYMATTR Value 402k
SYMBOL res -304 -16 R0
SYMATTR InstName R2
SYMATTR Value 402k
SYMBOL PowerProducts\\LT8350 224 208 R0
SYMATTR InstName U1
SYMBOL res -160 432 R90
WINDOW 0 -2 61 VBottom 2
WINDOW 3 32 56 VTop 2
SYMATTR InstName R10
SYMATTR Value 60k
SYMBOL cap -384 -144 R180
WINDOW 0 3 91 Left 2
WINDOW 3 16 -37 Left 2
WINDOW 123 -25 -35 Left 2
SYMATTR InstName C4
SYMATTR Value 22µ
SYMATTR Value2 x3
SYMATTR SpiceLine Rser=0.01
SYMBOL cap -112 -144 R180
WINDOW 0 4 90 Left 2
WINDOW 3 22 -38 Left 2
WINDOW 123 -13 -38 Left 2
SYMATTR InstName C5
SYMATTR Value 0.1µ
SYMATTR Value2 x2
SYMATTR SpiceLine Rser=0.002
SYMBOL voltage -496 -208 R0
WINDOW 123 0 0 Left 2
WINDOW 39 0 0 Left 2
WINDOW 3 -356 173 Left 2
WINDOW 0 24 16 Invisible 2
SYMATTR Value PWL(0 0 0.1m 11 3m 11 4m 3.2 6m 3.2 7m 18)
SYMATTR InstName VIN
TEXT 224 -536 Center 2 ;LT8350 - 40VIN, 18VOUT 6A SYNCHRONOUS BUCK-BOOST SILENT SWITCHER\nHigh Efficiency Buck-Boost Voltage Regulator\nInput = 3V to 36V, Output = 12V, Iout = 1.2A, Fsw = 350kHz\nTo emulate 12V battery and severe cold crank, input starts at 11V, falls to 3.2V, and rises to 18V.
TEXT -408 744 Left 2 !.tran 9m startup
TEXT 880 568 Left 2 ;SYNC/MODE pin:\nDCM = GND\nDCM + SSFM = Vref\nFCM = Float\nFCM + SSFM = INTVcc\nSYNC = External Clock
TEXT -320 872 Left 2 ;Note:\n  If the simulation model is not found please update with the "Sync Release" command from the "Tools" menu.\n  It remains the customer's responsibility to verify proper and reliable operation in the actual application.\n  Component substitution and printed circuit board layout may significantly affect circuit performance or reliability.\n  Contact your local sales representative for assistance. This circuit is distributed to customers only for use with ADI parts.\n  Copyright © 2022 Analog Device Inc. All rights reserved.
TEXT 640 568 Left 2 ;350kHz
