Version 4
SHEET 1 1352 800
WIRE -496 0 -640 0
WIRE -368 0 -496 0
WIRE -208 0 -368 0
WIRE -96 0 -208 0
WIRE -64 0 -96 0
WIRE 48 0 16 0
WIRE 192 0 48 0
WIRE -208 16 -208 0
WIRE 192 16 192 0
WIRE -640 32 -640 0
WIRE -496 32 -496 0
WIRE -368 48 -368 0
WIRE -96 96 -96 0
WIRE 48 96 48 0
WIRE 192 96 192 80
WIRE -496 112 -496 96
WIRE -208 112 -208 80
WIRE -640 128 -640 112
WIRE -368 176 -368 128
WIRE -160 176 -368 176
WIRE 304 176 256 176
WIRE 384 176 304 176
WIRE 464 176 384 176
WIRE 576 176 464 176
WIRE 688 176 576 176
WIRE 464 192 464 176
WIRE 688 192 688 176
WIRE -368 208 -368 176
WIRE 304 208 304 176
WIRE 384 208 384 176
WIRE 576 208 576 176
WIRE -160 240 -272 240
WIRE 576 288 576 272
WIRE 688 288 688 272
WIRE -272 304 -272 240
WIRE -160 304 -208 304
WIRE 384 304 384 272
WIRE 384 304 256 304
WIRE 464 304 464 272
WIRE 464 304 384 304
WIRE -368 320 -368 288
WIRE 464 320 464 304
WIRE -272 400 -272 384
WIRE -80 400 -80 384
WIRE 48 400 48 384
WIRE 464 416 464 400
WIRE -272 480 -272 464
WIRE -80 496 -80 464
WIRE 48 496 48 480
WIRE 176 496 176 384
FLAG -80 496 0
FLAG 176 496 0
FLAG 464 416 0
FLAG 688 288 0
FLAG 576 288 0
FLAG -640 0 IN
FLAG 688 176 OUT
FLAG -208 304 0
FLAG 48 496 0
FLAG -368 320 0
FLAG -208 112 0
FLAG -496 112 0
FLAG -640 128 0
FLAG -272 480 0
FLAG 304 272 0
SYMBOL cap -96 400 R0
SYMATTR InstName C5
SYMATTR Value 1µ
SYMBOL voltage -640 16 R0
WINDOW 3 -235 158 Left 2
WINDOW 123 0 0 Left 2
WINDOW 39 0 0 Left 2
SYMATTR Value PWL(0 0 150u 5 2m 5 3m 14 4m 14 5m 5)
SYMATTR InstName V1
SYMBOL ind -80 16 R270
WINDOW 0 32 56 VTop 2
WINDOW 3 2 59 VBottom 2
SYMATTR InstName L1
SYMATTR Value 1.5µ
SYMATTR SpiceLine Rser=17.1m
SYMBOL res 448 176 R0
SYMATTR InstName R1
SYMATTR Value 1Meg
SYMBOL res 448 304 R0
SYMATTR InstName R2
SYMATTR Value 90.9k
SYMBOL cap 560 208 R0
WINDOW 3 40 35 Left 2
WINDOW 123 31 60 Left 2
SYMATTR Value 22µ
SYMATTR Value2 x4
SYMATTR SpiceLine Rser=10m
SYMATTR InstName C7
SYMBOL res 672 176 R0
SYMATTR InstName Rload
SYMATTR Value 9
SYMBOL res 32 384 R0
SYMATTR InstName R6
SYMATTR Value 47.5k
SYMBOL cap 176 16 R0
SYMATTR InstName C3
SYMATTR Value 0.1µ
SYMBOL cap -512 32 R0
SYMATTR InstName C1
SYMATTR Value 10µ
SYMBOL res -384 32 R0
SYMATTR InstName R3
SYMATTR Value 1Meg
SYMBOL res -384 192 R0
SYMATTR InstName R4
SYMATTR Value 330k
SYMBOL cap -224 16 R0
SYMATTR InstName C2
SYMATTR Value 1µ
SYMBOL res -288 288 R0
SYMATTR InstName R5
SYMATTR Value 20k
SYMBOL cap 288 208 R0
WINDOW 3 40 35 Left 2
WINDOW 123 41 62 Left 2
SYMATTR Value 1µ
SYMATTR Value2 x2
SYMATTR SpiceLine Rser=10m
SYMATTR InstName C6
SYMBOL PowerProducts\\LT8337-1 48 240 R0
SYMATTR InstName U1
SYMBOL cap 368 208 R0
SYMATTR InstName C8
SYMATTR Value 4.7p
SYMBOL cap -288 400 R0
SYMATTR InstName C4
SYMATTR Value 680p
TEXT 368 496 Left 2 !.tran 6m startup
TEXT 72 512 Left 2 ;2MHz
TEXT -664 536 Left 2 ;Note:\n  If the simulation model is not found please update with the "Sync Release" command from the "Tools" menu.\n  It remains the customer's responsibility to verify proper and reliable operation in the actual application.\n  Component substitution and printed circuit board layout may significantly affect circuit performance or reliability.\n  Contact your local sales representative for assistance. This circuit is distributed to customers only for use with ADI parts.\n  Copyright © 2021 Analog Device Inc. All rights reserved.
TEXT 8 -104 Center 2 ;LT8337-1 - 28V, 5A Low IQ Synchronous Step-Up Silent Switcher with PassThru and Vc Pin\nInput: 2.7V to 28V     Output: 12V @ 1.33A, Fsw = 2MHz
LINE Normal -208 240 -160 240 2
