Version 4
SHEET 1 1540 804
WIRE -128 -96 -208 -96
WIRE -48 -96 -128 -96
WIRE -16 -96 -48 -96
WIRE 432 -96 400 -96
WIRE 464 -96 432 -96
WIRE -208 -80 -208 -96
WIRE -128 -80 -128 -96
WIRE -128 0 -128 -16
WIRE -48 0 -48 -96
WIRE -16 0 -48 0
WIRE 432 0 400 0
WIRE 464 0 464 -32
WIRE 464 0 432 0
WIRE 496 0 464 0
WIRE 608 0 576 0
WIRE 656 0 608 0
WIRE 736 0 656 0
WIRE 752 0 736 0
WIRE 848 0 832 0
WIRE 912 0 848 0
WIRE -208 16 -208 0
WIRE 656 16 656 0
WIRE 912 16 912 0
WIRE -64 96 -128 96
WIRE -16 96 -64 96
WIRE 432 96 400 96
WIRE 496 96 432 96
WIRE 608 96 608 0
WIRE 608 96 576 96
WIRE 656 96 656 80
WIRE 912 96 912 80
WIRE -128 112 -128 96
WIRE -128 192 -128 176
WIRE -16 192 -32 192
WIRE 432 192 400 192
WIRE 736 192 736 0
WIRE 736 192 432 192
WIRE -48 288 -208 288
WIRE -16 288 -48 288
WIRE 432 288 400 288
WIRE 848 288 848 0
WIRE 848 288 432 288
WIRE -208 320 -208 288
WIRE -16 384 -32 384
WIRE 432 384 400 384
WIRE -208 416 -208 400
WIRE 192 480 192 464
FLAG -208 16 0
FLAG 192 480 0
FLAG 656 96 0
FLAG -48 -96 IN
FLAG -128 192 0
FLAG -208 416 0
FLAG 432 96 FB
FLAG 432 192 ISP
FLAG 432 288 ISN
FLAG -48 288 CTRL
FLAG -64 96 INTVcc
FLAG 432 384 VC
FLAG 432 0 SW
FLAG 432 -96 BST
FLAG -32 384 0
FLAG -128 0 0
FLAG 912 96 0
SYMBOL voltage -208 -96 M0
WINDOW 123 0 0 Left 0
WINDOW 39 24 44 Left 2
SYMATTR InstName V1
SYMATTR Value PWL(0 0 0.1m 48)
SYMBOL cap 448 -96 R0
WINDOW 0 24 -9 Left 2
WINDOW 3 26 14 Left 2
SYMATTR InstName C2
SYMATTR Value 0.022µ
SYMATTR SpiceLine V=25 Irms=0 Rser=0 Lser=0 mfg="Murata" pn="GCM155R71E223KA55" type="X7R"
SYMBOL ind 480 16 R270
WINDOW 0 32 56 VTop 2
WINDOW 3 5 56 VBottom 2
SYMATTR InstName L1
SYMATTR Value 68µ
SYMATTR Value2 Rser=10m
SYMATTR SpiceLine Ipk=2.1 Rser=0.193 Rpar=11304 Cpar=0 mfg="Coilcraft" pn="MSS1260-124"
SYMBOL cap 640 16 R0
WINDOW 3 36 46 Left 2
WINDOW 40 36 67 Left 2
SYMATTR Value 4.7µ
SYMATTR InstName C3
SYMATTR SpiceLine V=50 Irms=0 Rser=0 Lser=0 mfg="Murata" pn="GRM21BZ71H475KE15" type="X7R"
SYMBOL res 736 16 R270
WINDOW 0 32 56 VTop 2
WINDOW 3 0 56 VBottom 2
SYMATTR InstName R2
SYMATTR Value 82m
SYMBOL LED 896 16 R0
WINDOW 123 43 68 Left 2
WINDOW 3 79 37 Left 2
SYMATTR Value2 n=12
SYMATTR Value XTEHE
SYMATTR InstName D1
SYMATTR Description Diode
SYMATTR Type diode
SYMBOL res 480 112 R270
WINDOW 0 32 56 VTop 2
WINDOW 3 0 56 VBottom 2
SYMATTR InstName R1
SYMATTR Value 732k
SYMBOL cap -144 112 R0
SYMATTR InstName C1
SYMATTR Value 2.2µ
SYMATTR SpiceLine V=6.3 Irms=0 Rser=0 Lser=0 mfg="Murata" pn="GRM153R60J225ME95" type="X5R"
SYMBOL LT8374 192 96 R0
SYMATTR InstName U1
SYMBOL voltage -208 304 M0
WINDOW 123 0 0 Left 0
WINDOW 39 0 0 Left 0
SYMATTR InstName V2
SYMATTR Value PULSE(3 0 1.2m 1p 1p 0.7m 1m)
SYMBOL cap -144 -80 R0
WINDOW 3 36 46 Left 2
WINDOW 40 36 67 Left 2
SYMATTR Value 4.7µ
SYMATTR InstName C4
SYMATTR SpiceLine V=100 Irms=0 Rser=0 Lser=0 mfg="Murata" pn="GRM31CZ72A475ME11" type="X7R"
TEXT 568 552 Left 2 !.tran 5m startup
TEXT 936 192 Left 2 !.MODEL XTEHE D\n+ IS=1.144374946827e-018\n+ N=2.677857214852\n+ RS=0.1927031715938\n+ XTI=36.7853152981946\n+ EG=2.5000
TEXT 200 -168 Bottom 2 ;LT8374 - 60V, 1.5A Synchronous Step-Down LED Driver\n48VIN to 36VLED @ 1.2A \n330kHz fsw
TEXT -200 616 Left 1 ;Note:\n  If the simulation model is not found please update with the "Sync Release" command from the "Tools" menu.\n  It remains the customer's responsibility to verify proper and reliable operation in the actual application.\n  Component substitution and printed circuit board layout may significantly affect circuit performance or reliability.\n  Contact your local sales representative for assistance. This circuit is distributed to customers only for use with ADI parts.\n  Copyright © 2023 Analog Devices. All rights reserved.
TEXT -360 376 Center 2 ;100Hz PWM Dimming
