Version 4
SHEET 1 1868 1064
WIRE -96 -304 -256 -304
WIRE 224 -304 -96 -304
WIRE 544 -304 304 -304
WIRE 640 -304 544 -304
WIRE 800 -304 704 -304
WIRE 864 -304 800 -304
WIRE 976 -304 864 -304
WIRE -256 -272 -256 -304
WIRE 864 -272 864 -304
WIRE 544 -256 544 -304
WIRE 800 -240 800 -304
WIRE -96 -176 -96 -304
WIRE 64 -176 -96 -176
WIRE 496 -176 448 -176
WIRE 864 -176 864 -208
WIRE -256 -160 -256 -192
WIRE 800 -128 800 -160
WIRE 800 -128 752 -128
WIRE 800 -96 800 -128
WIRE -208 -80 -224 -80
WIRE -96 -80 -96 -96
WIRE -96 -80 -128 -80
WIRE 32 -80 -96 -80
WIRE 64 -80 32 -80
WIRE 544 -80 544 -160
WIRE 544 -80 448 -80
WIRE 592 -80 544 -80
WIRE 704 -80 672 -80
WIRE -128 16 -224 16
WIRE -48 16 -128 16
WIRE 16 16 -48 16
WIRE 64 16 16 16
WIRE 496 16 448 16
WIRE 752 16 752 -128
WIRE 752 16 496 16
WIRE 800 32 800 -16
WIRE -224 48 -224 16
WIRE 64 112 32 112
WIRE 976 112 976 -304
WIRE 976 112 448 112
WIRE -224 128 -224 112
WIRE -48 208 -48 96
WIRE -48 208 -64 208
WIRE 64 208 -48 208
WIRE 496 208 448 208
WIRE 976 208 976 192
WIRE 976 208 496 208
WIRE 976 288 976 208
WIRE -128 304 -128 96
WIRE -128 304 -144 304
WIRE 64 304 -128 304
WIRE 512 304 448 304
WIRE 928 304 512 304
WIRE -240 400 -272 400
WIRE -96 400 -176 400
WIRE -64 400 -96 400
WIRE 64 400 -64 400
WIRE 544 400 448 400
WIRE -64 416 -64 400
WIRE 544 416 544 400
WIRE 16 496 -64 496
WIRE 64 496 16 496
WIRE 480 496 448 496
WIRE 496 496 480 496
WIRE 976 496 976 384
WIRE 544 512 544 496
WIRE 496 544 496 496
WIRE 256 560 256 544
WIRE -224 576 -272 576
WIRE -224 608 -224 576
WIRE 976 608 976 560
WIRE 496 656 496 624
WIRE -224 720 -224 688
WIRE 496 752 496 720
FLAG -256 -160 0
FLAG 544 512 0
FLAG -256 -304 VIN
FLAG 256 560 0
FLAG 976 -304 OUT
FLAG 864 -176 0
FLAG 704 -80 0
FLAG 496 752 0
FLAG 800 32 0
FLAG -224 -80 0
FLAG -224 128 0
FLAG -272 400 0
FLAG 496 16 FB
FLAG 32 -80 EN
FLAG 32 112 PWM
FLAG -96 400 INTVCC
FLAG -144 304 IADJ
FLAG -64 208 CTRL
FLAG -224 720 0
FLAG -272 576 PWM
FLAG 16 496 _FAULT
FLAG 480 496 Vc
FLAG 512 304 PWMTG
FLAG 544 -304 SW
FLAG 16 16 VREF
FLAG 496 208 ISN
FLAG 976 608 0
SYMBOL voltage -256 -288 R0
WINDOW 123 0 0 Left 2
WINDOW 39 0 0 Left 2
WINDOW 3 -202 53 Left 2
SYMATTR Value PWL(0 0 1m 12)
SYMATTR InstName V1
SYMBOL res 528 400 R0
WINDOW 0 76 35 Left 2
WINDOW 3 68 58 Left 2
SYMATTR InstName R2
SYMATTR Value 110k
SYMBOL LED 960 496 R0
WINDOW 123 26 73 Left 2
WINDOW 0 27 -9 Left 2
WINDOW 3 84 42 Left 2
SYMATTR Value2 n=25
SYMATTR InstName D_LED1
SYMATTR Value LXK2-PW14
SYMATTR Description Diode
SYMATTR Type diode
SYMBOL nmos 496 -256 R0
WINDOW 3 60 73 Left 2
SYMATTR Value SI7454DP
SYMATTR InstName M1
SYMBOL schottky 640 -320 M90
WINDOW 0 0 32 VBottom 2
WINDOW 3 32 32 VTop 2
SYMATTR InstName D1
SYMATTR Value PDS5100
SYMATTR Description Diode
SYMATTR Type diode
SYMBOL ind 208 -288 R270
WINDOW 0 32 56 VTop 2
WINDOW 3 5 56 VBottom 2
SYMATTR InstName L1
SYMATTR Value 15µ
SYMATTR SpiceLine Ipk=11 Rser=0.0015 Rpar=1413 Cpar=0 mfg="Coilcraft" pn="SER2915L-153"
SYMBOL cap 848 -272 R0
WINDOW 3 34 44 Left 2
WINDOW 123 34 78 Left 2
SYMATTR Value 4.7µ
SYMATTR Value2 m=3
SYMATTR InstName C1
SYMATTR SpiceLine Rser=3m
SYMBOL res 576 -64 R270
WINDOW 0 32 56 VTop 2
WINDOW 3 0 56 VBottom 2
SYMATTR InstName Rsen1
SYMATTR Value 10m
SYMBOL res 480 528 R0
SYMATTR InstName R1
SYMATTR Value 39k
SYMBOL cap 480 656 R0
SYMATTR InstName C3
SYMATTR Value 2.2n
SYMBOL res 960 96 R0
SYMATTR InstName R7
SYMATTR Value 500m
SYMBOL res 784 -256 R0
WINDOW 0 -51 32 Left 2
WINDOW 3 -71 67 Left 2
SYMATTR InstName R3
SYMATTR Value 1Meg
SYMBOL res 784 -112 R0
SYMATTR InstName R4
SYMATTR Value 13k
SYMBOL res -112 -192 R0
SYMATTR InstName R5
SYMATTR Value 499k
SYMBOL res -112 -96 R90
WINDOW 0 0 56 VBottom 2
WINDOW 3 32 56 VTop 2
SYMATTR InstName R6
SYMATTR Value 127k
SYMBOL cap -176 416 M270
WINDOW 0 32 32 VTop 2
WINDOW 3 0 32 VBottom 2
SYMATTR InstName C2
SYMATTR Value 4.7µ
SYMBOL res -64 0 R0
WINDOW 0 -31 47 Left 2
WINDOW 3 -51 79 Left 2
SYMATTR InstName R8
SYMATTR Value 100k
SYMBOL cap -240 48 R0
WINDOW 0 -39 10 Left 2
WINDOW 3 -47 54 Left 2
SYMATTR InstName C4
SYMATTR Value 2.2µ
SYMBOL res -80 400 R0
WINDOW 0 -51 41 Left 2
WINDOW 3 -59 71 Left 2
SYMATTR InstName R9
SYMATTR Value 100k
SYMBOL res -144 0 R0
WINDOW 0 -47 45 Left 2
WINDOW 3 -56 81 Left 2
SYMATTR InstName R11
SYMATTR Value 100k
SYMBOL pmos 928 384 M180
SYMATTR InstName M2
SYMATTR Value RSJ250P10
SYMBOL PowerProducts\\LT8356-1 256 96 R0
SYMATTR InstName U1
SYMBOL voltage -224 592 R0
WINDOW 123 0 0 Left 2
WINDOW 39 0 0 Left 2
WINDOW 3 -129 54 Left 2
SYMATTR Value 1
SYMATTR InstName V2
TEXT 624 752 Left 2 !.tran 36m startup
TEXT 864 496 Left 2 ;85VLED\n500mA
TEXT 584 488 Left 2 ;Fsw: 250kHz
TEXT 296 -544 Center 4 ;LT8356-1 Boost LED Driver \nLT8356-1 100VIN, 120VOUT High Voltage LED Driver Controller With SSFM\n8V-24VIN to 85VLED @500mA 250kHz
TEXT -408 672 Left 2 ;10% Duty Cycle
TEXT -160 872 Left 2 ;Note:\n  If the simulation model is not found please update with the "Sync Release" command from the "Tools" menu.\n  It remains the customer's responsibility to verify proper and reliable operation in the actual application.\n  Component substitution and printed circuit board layout may significantly affect circuit performance or reliability.\n  Contact your local sales representative for assistance. This circuit is distributed to customers only for use with ADI parts.\n  Copyright © 2022 Analog Devices. All rights reserved.
TEXT 584 520 Left 2 ;Fpwm: 250Hz
