Version 4
SHEET 1 2264 1072
WIRE 496 -384 -96 -384
WIRE 688 -384 496 -384
WIRE 784 -384 752 -384
WIRE 880 -384 848 -384
WIRE 1184 -384 944 -384
WIRE 496 -336 496 -384
WIRE -464 -256 -560 -256
WIRE -384 -256 -464 -256
WIRE -304 -256 -384 -256
WIRE -224 -256 -304 -256
WIRE -128 -256 -224 -256
WIRE -96 -256 -96 -384
WIRE -96 -256 -128 -256
WIRE -32 -256 -96 -256
WIRE 16 -256 -32 -256
WIRE 192 -256 96 -256
WIRE 224 -256 192 -256
WIRE 320 -256 288 -256
WIRE -560 -240 -560 -256
WIRE -464 -240 -464 -256
WIRE -384 -240 -384 -256
WIRE -304 -240 -304 -256
WIRE -224 -240 -224 -256
WIRE -128 -224 -128 -256
WIRE 192 -208 192 -256
WIRE 320 -208 320 -256
WIRE 496 -208 496 -272
WIRE 528 -208 496 -208
WIRE 576 -208 528 -208
WIRE 816 -208 576 -208
WIRE 896 -208 816 -208
WIRE 928 -208 896 -208
WIRE 1040 -208 1008 -208
WIRE 1056 -208 1040 -208
WIRE 1184 -208 1184 -384
WIRE 1184 -208 1152 -208
WIRE 816 -192 816 -208
WIRE -32 -176 -32 -256
WIRE 48 -176 -32 -176
WIRE 496 -176 496 -208
WIRE 496 -176 464 -176
WIRE -560 -144 -560 -160
WIRE -464 -144 -464 -176
WIRE -384 -144 -384 -176
WIRE -304 -144 -304 -176
WIRE -224 -144 -224 -176
WIRE 816 -112 816 -128
WIRE -128 -96 -128 -144
WIRE 48 -96 -128 -96
WIRE 528 -96 464 -96
WIRE 752 -80 720 -80
WIRE 48 -16 -128 -16
WIRE 496 -16 464 -16
WIRE 528 -16 528 -96
WIRE 576 -16 576 -32
WIRE 576 -16 528 -16
WIRE 576 0 576 -16
WIRE -128 16 -128 -16
WIRE 496 48 496 -16
WIRE 896 48 896 -208
WIRE 896 48 496 48
WIRE 48 64 16 64
WIRE 1040 64 1040 -208
WIRE 1040 64 464 64
WIRE -48 144 -80 144
WIRE 48 144 16 144
WIRE 1072 144 1072 -160
WIRE 1072 144 464 144
WIRE 48 224 16 224
WIRE 496 224 464 224
WIRE -160 304 -176 304
WIRE -80 304 -96 304
WIRE 48 304 -80 304
WIRE 480 304 464 304
WIRE 560 304 544 304
WIRE -80 384 -80 304
WIRE -64 384 -80 384
WIRE 48 384 16 384
WIRE 512 384 464 384
WIRE 48 464 -256 464
WIRE 496 464 464 464
WIRE -256 512 -256 464
WIRE 192 512 192 496
WIRE 320 528 320 496
WIRE -256 608 -256 592
WIRE 192 608 192 592
WIRE 320 688 320 672
WIRE -256 704 -256 688
WIRE -256 800 -256 784
FLAG 192 608 0
FLAG 320 688 0
FLAG 560 304 0
FLAG 496 464 0
FLAG 816 -112 0
FLAG -80 144 0
FLAG -176 304 0
FLAG -560 -144 0
FLAG -560 -256 IN
FLAG -128 16 0
FLAG 512 384 0
FLAG 528 -208 OUT
FLAG 16 64 0
FLAG -256 800 0
FLAG 752 -80 IN
FLAG 656 0 0
FLAG -464 -144 0
FLAG -384 -144 0
FLAG -304 -144 0
FLAG -224 -144 0
SYMBOL ind 0 -240 R270
WINDOW 0 32 56 VTop 2
WINDOW 3 5 56 VBottom 2
SYMATTR InstName L1
SYMATTR Value 3.3µ
SYMBOL cap 288 -272 R90
WINDOW 0 0 32 VBottom 2
WINDOW 3 32 32 VTop 2
SYMATTR InstName C1
SYMATTR Value 33n
SYMBOL cap 800 -192 R0
SYMATTR InstName C2
SYMATTR Value 4.7µ
SYMBOL cap 480 320 R270
WINDOW 0 32 32 VTop 2
WINDOW 3 0 32 VBottom 2
SYMATTR InstName C4
SYMATTR Value 22n
SYMBOL cap -96 288 R90
WINDOW 0 0 32 VBottom 2
WINDOW 3 32 32 VTop 2
SYMATTR InstName C5
SYMATTR Value 2.2µ
SYMBOL res -80 400 R270
WINDOW 0 32 56 VTop 2
WINDOW 3 0 56 VBottom 2
SYMATTR InstName R1
SYMATTR Value 100K
SYMBOL res 176 496 R0
SYMATTR InstName R2
SYMATTR Value 45.3K
SYMBOL res 1024 -224 R90
WINDOW 0 0 56 VBottom 2
WINDOW 3 32 56 VTop 2
SYMATTR InstName R3
SYMATTR Value 66m
SYMBOL cap 16 128 R90
WINDOW 0 0 71 VBottom 2
WINDOW 3 -29 16 VTop 2
SYMATTR InstName C6
SYMATTR Value 0.1µ
SYMBOL voltage -560 -256 R0
WINDOW 123 0 0 Left 2
WINDOW 39 0 0 Left 2
WINDOW 3 -221 54 Left 2
SYMATTR Value PWL(0 0 1m 12)
SYMATTR InstName V1
SYMBOL pmos 1152 -160 M270
WINDOW 0 60 76 Left 2
WINDOW 3 59 40 Left 2
SYMATTR InstName M1
SYMATTR Value RSR015P06
SYMBOL res -144 -240 R0
WINDOW 3 38 70 Left 2
WINDOW 0 38 36 Left 2
SYMATTR Value 499K
SYMATTR InstName R6
SYMBOL res -144 -112 R0
WINDOW 3 39 68 Left 2
WINDOW 0 40 38 Left 2
SYMATTR Value 140K
SYMATTR InstName R7
SYMBOL res 32 128 M0
WINDOW 0 42 54 Left 2
WINDOW 3 31 78 Left 2
SYMATTR InstName R10
SYMATTR Value 100K
SYMBOL voltage -256 496 R0
WINDOW 123 0 0 Left 2
WINDOW 39 0 0 Left 2
SYMATTR InstName V2
SYMATTR Value PWL(0 0 1m 0 1.001m 5 1.8m 5 1.801m 0)
SYMBOL PowerProducts\\LT8386 256 144 R0
SYMATTR InstName U1
SYMBOL cap 480 -336 R0
SYMATTR InstName C8
SYMATTR Value 4.7µ
SYMBOL LTCSymbols\\PNP 640 -32 R180
SYMATTR InstName Q1
SYMBOL res 560 -224 R0
SYMATTR InstName R4
SYMATTR Value 127k
SYMBOL res 736 -96 R90
WINDOW 0 0 56 VBottom 2
WINDOW 3 32 56 VTop 2
SYMATTR InstName R5
SYMATTR Value 10k
SYMBOL res 560 16 R270
WINDOW 0 32 56 VTop 2
WINDOW 3 0 56 VBottom 2
SYMATTR InstName R9
SYMATTR Value 10k
SYMBOL LED 944 -400 R90
WINDOW 3 -63 29 VTop 2
WINDOW 0 0 32 VBottom 2
SYMATTR Value KW_CSLPM1TG
SYMATTR InstName D2
SYMATTR Description Diode
SYMATTR Type diode
SYMBOL LED 848 -400 R90
WINDOW 3 87 35 VTop 2
WINDOW 0 0 32 VBottom 2
SYMATTR Value KW_CSLPM1TG
SYMATTR InstName D1
SYMATTR Description Diode
SYMATTR Type diode
SYMBOL LED 752 -400 R90
WINDOW 3 -66 46 VTop 2
WINDOW 0 0 32 VBottom 2
SYMATTR Value KW_CSLPM1TG
SYMATTR InstName D3
SYMATTR Description Diode
SYMATTR Type diode
SYMBOL cap -480 -240 R0
SYMATTR InstName C11
SYMATTR Value 22µ
SYMATTR SpiceLine Rser=1m
SYMBOL voltage -256 592 R0
WINDOW 123 0 0 Left 2
WINDOW 39 0 0 Left 2
SYMATTR InstName V3
SYMATTR Value PULSE(0 5 2m 1n 1n 50u 10m 15)
SYMBOL cap -400 -240 R0
SYMATTR InstName C7
SYMATTR Value 4.7µ
SYMBOL cap -320 -240 R0
SYMATTR InstName C9
SYMATTR Value 4.7µ
SYMBOL cap -240 -240 R0
SYMATTR InstName C10
SYMATTR Value 4.7µ
SYMBOL voltage -256 688 R0
WINDOW 123 0 0 Left 2
WINDOW 39 0 0 Left 2
SYMATTR InstName V4
SYMATTR Value PULSE(0 5 250m 1n 1n 50u 500m)
SYMBOL res 304 512 R0
SYMATTR InstName R8
SYMATTR Value 20k
SYMBOL cap 304 608 R0
SYMATTR InstName C3
SYMATTR Value 1n
SYMATTR SpiceLine Rpar=3000Meg
TEXT 640 248 Left 2 !.MODEL KW_CSLPM1TG D\n+ IS=7.704630652598644e-18\n+ N=2.809582832133366\n+ RS=0.09393160536831829\n+ Tnom=25\n+ EG=3.297674924987056\n+ XTI=1.0000000000000000\n+ TRS1=-0.002323741990697282\n+ TRS2=8.860977615487749e-06\n+ mfg=OSRAM_OS\n* Valid for bin '15' with Vf(binning) = 2.88 V and If(binning) = 1400 mA\n* VERSION: 3
TEXT 648 744 Left 2 !.tran 0 10s 0 1u startup
TEXT 288 -608 Center 2 ;LT8386 - 60V 3A Silent Switcher Synchronous Step-Up LED Driver\nBuck-Boost Mode Flash Application\nInput: 9V to 36V     Output: 10VLED 1.5A    Switching frequency: 2MHz
TEXT -240 880 Left 2 ;Note:\n  If the simulation model is not found please update with the "Sync Release" command from the "Tools" menu.\n  It remains the customer's responsibility to verify proper and reliable operation in the actual application.\n  Component substitution and printed circuit board layout may significantly affect circuit performance or reliability.\n  Contact your local sales representative for assistance. This circuit is distributed to customers only for use with ADI parts.\n  Copyright © 2021 Analog Devices Inc. All rights reserved.
TEXT 648 208 Left 2 ;LED model:
TEXT -312 552 Right 2 ;Startup at LED fully on
TEXT -312 648 Right 2 ;100Hz dimming after 2ms
TEXT -312 744 Right 2 ;2Hz flash after 250ms
TEXT 648 664 Left 2 ;Other LED models are also applicable in this simulation.
