Version 4
SHEET 1 1348 684
WIRE 32 -32 -64 -32
WIRE 144 -32 32 -32
WIRE 176 -32 144 -32
WIRE 304 -32 256 -32
WIRE 400 -32 304 -32
WIRE 528 -32 464 -32
WIRE 624 -32 528 -32
WIRE 752 -32 688 -32
WIRE 864 -32 752 -32
WIRE 960 -32 864 -32
WIRE -64 -16 -64 -32
WIRE 528 -16 528 -32
WIRE 864 -16 864 -32
WIRE 960 -16 960 -32
WIRE 752 0 752 -32
WIRE 144 16 144 -32
WIRE 304 16 304 -32
WIRE -64 80 -64 64
WIRE 32 80 32 -32
WIRE 64 80 32 80
WIRE 400 80 384 80
WIRE 480 80 464 80
WIRE 528 80 528 64
WIRE 864 80 864 48
WIRE 960 80 960 64
WIRE 752 112 752 80
WIRE 752 112 592 112
WIRE 752 128 752 112
WIRE 64 176 -48 176
WIRE 592 176 592 112
WIRE 592 176 384 176
WIRE 752 224 752 208
WIRE -32 272 -48 272
WIRE 64 272 48 272
WIRE 432 272 384 272
WIRE 512 272 496 272
WIRE -16 368 -48 368
WIRE 64 368 48 368
WIRE 400 368 384 368
WIRE 224 448 224 432
FLAG -64 80 0
FLAG 960 80 0
FLAG 864 80 0
FLAG 400 368 0
FLAG 224 448 0
FLAG -48 272 0
FLAG -48 368 0
FLAG 512 272 0
FLAG 752 224 0
FLAG 960 -32 OUT
FLAG -64 -32 IN
FLAG 480 80 0
FLAG 528 80 0
FLAG -48 176 0
SYMBOL voltage -64 -32 R0
SYMATTR InstName V1
SYMATTR Value 12
SYMBOL schottky 624 -16 R270
WINDOW 0 32 32 VTop 2
WINDOW 3 0 32 VBottom 2
SYMATTR InstName D1
SYMATTR Value RB068L100
SYMATTR Description Diode
SYMATTR Type diode
SYMBOL cap 848 -16 R0
SYMATTR InstName C1
SYMATTR Value 10µ
SYMBOL res 736 112 R0
SYMATTR InstName R1
SYMATTR Value 71.5K
SYMBOL cap 432 288 R270
WINDOW 0 32 32 VTop 2
WINDOW 3 0 32 VBottom 2
WINDOW 123 -21 32 VBottom 2
SYMATTR InstName C2
SYMATTR Value 6800p
SYMATTR Value2 Rser=16.2K
SYMBOL cap 48 352 R90
WINDOW 0 0 32 VBottom 2
WINDOW 3 32 32 VTop 2
SYMATTR InstName C3
SYMATTR Value 6800p
SYMBOL res 64 256 R90
WINDOW 0 0 56 VBottom 2
WINDOW 3 32 56 VTop 2
SYMATTR InstName R2
SYMATTR Value 121K
SYMBOL cap 400 64 M90
WINDOW 0 0 32 VBottom 2
WINDOW 3 32 32 VTop 2
SYMATTR InstName C4
SYMATTR Value 1µ
SYMBOL res 944 -32 R0
SYMATTR InstName Rload
SYMATTR Value 54
SYMBOL PowerProducts\\LT8361 224 224 R0
SYMATTR InstName U1
SYMBOL res 736 -16 R0
SYMATTR InstName R3
SYMATTR Value 1Meg
SYMBOL ind2 160 -16 R270
WINDOW 0 32 56 VTop 2
WINDOW 3 4 56 VBottom 2
SYMATTR InstName L1
SYMATTR Value 22µ
SYMATTR SpiceLine Rser=.2
SYMBOL ind2 512 80 M180
WINDOW 0 36 80 Left 2
WINDOW 3 36 40 Left 2
SYMATTR InstName L2
SYMATTR Value 22µ
SYMATTR SpiceLine Rser=.2
SYMBOL cap 400 -48 M90
WINDOW 0 0 32 VBottom 2
WINDOW 3 32 32 VTop 2
SYMATTR InstName C5
SYMATTR Value 1µ
TEXT 520 432 Left 2 !.tran 2m startup
TEXT 272 -64 Left 2 !K L1 L2 1
TEXT -232 456 Left 2 ;Note:\n  A smaller SS capacitor is being used to reduce simulation time. See datasheet for typical values.\n  If the simulation model is not found please update with the "Sync Release" command from the "Tools" menu.\n  It remains the customer's responsibility to verify proper and reliable operation in the actual application.\n  Component substitution and printed circuit board layout may significantly affect circuit performance or reliability.\n  Contact your local sales representative for assistance. This circuit is distributed to customers only for use with LTC parts.\n  Copyright © 2019 Analog Devices Inc. All rights reserved.
TEXT 488 -88 Bottom 2 ;LT8361 - Low Iq Boost/SEPIC/Inverting DC/DC Converter with 2A, 100V Switch\nLow Iq SEPIC Converter\nInput: 4.5V to 48V     Output: 24V @ 450mA (with 12Vin), Fsw = 400KHz
