Version 4
SHEET 1 1948 1140
WIRE -128 -128 -240 -128
WIRE -16 -128 -128 -128
WIRE 304 -128 -16 -128
WIRE 560 -128 304 -128
WIRE 720 -128 640 -128
WIRE 800 -128 720 -128
WIRE 928 -128 864 -128
WIRE 992 -128 928 -128
WIRE 1088 -128 992 -128
WIRE 1104 -128 1088 -128
WIRE -240 -112 -240 -128
WIRE -128 -112 -128 -128
WIRE 992 -112 992 -128
WIRE 1104 -112 1104 -128
WIRE 304 -96 304 -128
WIRE -16 -80 -16 -128
WIRE 720 -64 720 -128
WIRE -240 -16 -240 -32
WIRE -128 -16 -128 -48
WIRE 992 -16 992 -48
WIRE 1104 -16 1104 -32
WIRE -16 16 -16 0
WIRE 96 16 -16 16
WIRE 560 16 512 16
WIRE 656 16 640 16
WIRE 672 16 656 16
WIRE -16 32 -16 16
WIRE 656 80 656 16
WIRE 656 80 512 80
WIRE -16 128 -16 112
WIRE 96 160 80 160
WIRE 544 160 512 160
WIRE 592 160 544 160
WIRE 720 160 720 32
WIRE 720 160 672 160
WIRE 720 176 720 160
WIRE 928 176 928 -128
WIRE 544 192 544 160
WIRE 0 272 -160 272
WIRE 96 272 80 272
WIRE 928 272 928 256
WIRE 928 272 512 272
WIRE 928 288 928 272
WIRE -96 384 -112 384
WIRE -16 384 -32 384
WIRE 80 384 64 384
WIRE 96 384 80 384
WIRE 544 384 544 256
WIRE 544 384 512 384
WIRE 720 384 720 256
WIRE 720 384 544 384
WIRE 928 384 928 368
WIRE 720 400 720 384
WIRE -96 464 -112 464
WIRE 80 464 80 384
WIRE 80 464 -32 464
WIRE -160 512 -160 272
WIRE 432 512 432 496
WIRE 432 512 -160 512
WIRE 176 528 176 496
WIRE 304 528 304 496
WIRE 432 528 432 512
WIRE 176 624 176 592
WIRE 304 624 304 608
WIRE 432 624 432 592
FLAG -16 128 0
FLAG 176 624 0
FLAG -112 384 0
FLAG 432 624 0
FLAG 304 624 0
FLAG 928 384 0
FLAG 992 -16 0
FLAG 1104 -16 0
FLAG -240 -16 0
FLAG 1088 -128 OUT
FLAG -240 -128 IN
FLAG 720 400 0
FLAG -112 464 0
FLAG 80 160 0
FLAG -128 -16 0
SYMBOL ind 544 -112 R270
WINDOW 0 32 56 VTop 2
WINDOW 3 5 56 VBottom 2
SYMATTR InstName L1
SYMATTR Value 4.2µ
SYMATTR SpiceLine Rser=3m
SYMBOL res -32 -96 R0
SYMATTR InstName R1
SYMATTR Value 1Meg
SYMBOL res -32 16 R0
SYMATTR InstName R2
SYMATTR Value 143K
SYMBOL LT8357 304 192 R0
SYMATTR InstName U1
SYMBOL res 96 256 R90
WINDOW 0 0 56 VBottom 2
WINDOW 3 32 56 VTop 2
SYMATTR InstName R3
SYMATTR Value 100K
SYMBOL cap 160 528 R0
SYMATTR InstName C1
SYMATTR Value .01µ
SYMBOL cap -32 400 M270
WINDOW 0 32 32 VTop 2
WINDOW 3 6 31 VBottom 2
SYMATTR InstName C2
SYMATTR Value .01µ
SYMBOL res 80 400 M270
WINDOW 0 32 56 VTop 2
WINDOW 3 0 56 VBottom 2
SYMATTR InstName R4
SYMATTR Value 10K
SYMBOL cap 416 528 R0
WINDOW 0 25 8 Left 2
SYMATTR InstName C3
SYMATTR Value 2.2µ
SYMBOL res 288 512 R0
WINDOW 3 37 89 Left 2
SYMATTR Value 95.3K
SYMATTR InstName R5
SYMBOL res 544 32 R270
WINDOW 0 32 56 VTop 2
WINDOW 3 0 56 VBottom 2
SYMATTR InstName R6
SYMATTR Value 5
SYMBOL nmos 672 -64 R0
SYMATTR InstName Q1
SYMATTR Value BSC100N06LS3
SYMBOL schottky 800 -112 R270
WINDOW 0 32 32 VTop 2
WINDOW 3 0 32 VBottom 2
SYMATTR InstName D1
SYMATTR Value RBR10NS60A
SYMATTR Description Diode
SYMATTR Type diode
SYMBOL res 704 160 R0
SYMATTR Value 3m
SYMATTR InstName R7
SYMBOL res 912 160 R0
SYMATTR InstName R8
SYMATTR Value 1Meg
SYMBOL res 912 272 R0
SYMATTR InstName R9
SYMATTR Value 21.5K
SYMBOL res 1088 -128 R0
SYMATTR Value 24
SYMATTR InstName Rload
SYMBOL voltage -240 -128 R0
WINDOW 123 0 0 Left 2
WINDOW 39 0 0 Left 2
WINDOW 3 25 88 Left 2
SYMATTR Value 12
SYMATTR InstName V1
SYMBOL res 688 144 R90
WINDOW 0 0 56 VBottom 2
WINDOW 3 32 56 VTop 2
SYMATTR InstName R11
SYMATTR Value 1
SYMBOL cap 528 192 R0
WINDOW 3 27 48 Left 2
SYMATTR Value 1000p
SYMATTR InstName C4
SYMBOL cap 976 -112 R0
WINDOW 3 41 34 Left 2
WINDOW 123 28 60 Left 2
SYMATTR Value 10µ
SYMATTR Value2 x3
SYMATTR InstName C5
SYMATTR SpiceLine Rser=.01
SYMBOL cap -32 480 M270
WINDOW 0 27 31 VTop 2
WINDOW 3 0 32 VBottom 2
SYMATTR InstName C6
SYMATTR Value 100p
SYMBOL cap -144 -112 R0
WINDOW 3 38 34 Left 2
WINDOW 123 28 60 Left 2
SYMATTR Value 22µ
SYMATTR Value2 x3
SYMATTR InstName C7
TEXT 760 448 Left 2 !.tran 2m startup
TEXT -248 640 Left 2 ;Note:\n  If the simulation model is not found please update with the "Sync Release" command from the "Tools" menu.\n  It remains the customer's responsibility to verify proper and reliable operation in the actual application.\n  Component substitution and printed circuit board layout may significantly affect circuit performance or reliability.\n  Small SS capacitor used to reduce simulation time. Refer to the data sheet for selecting the soft-start capacitor value.\n  Contact your local sales representative for assistance. This circuit is distributed to customers only for use with ADI parts.\n  Copyright © 2020 Analog Device Inc. All rights reserved.
TEXT 416 -176 Bottom 2 ;LT8357 - 60V 2MHz Low-IQ Boost, SEPIC and Flyback Controller with Spread Sprectrum\nHigh Power, Low Iq Boost Regulator\nInput: 10V to 40V     Output: 48V @ 2A, Fsw = 350kHz
