Version 4
SHEET 1 1268 680
WIRE -48 -32 -144 -32
WIRE 32 -32 -48 -32
WIRE 144 -32 32 -32
WIRE 176 -32 144 -32
WIRE 304 -32 256 -32
WIRE 400 -32 304 -32
WIRE 528 -32 464 -32
WIRE 624 -32 528 -32
WIRE 736 -32 688 -32
WIRE 848 -32 736 -32
WIRE 960 -32 848 -32
WIRE -144 -16 -144 -32
WIRE -48 -16 -48 -32
WIRE 848 -16 848 -32
WIRE 960 -16 960 -32
WIRE 528 0 528 -32
WIRE 144 16 144 -32
WIRE 304 16 304 -32
WIRE -144 80 -144 64
WIRE -48 80 -48 48
WIRE 32 80 32 -32
WIRE 64 80 32 80
WIRE 400 80 384 80
WIRE 480 80 464 80
WIRE 736 80 736 -32
WIRE 848 80 848 48
WIRE 960 80 960 64
WIRE 528 112 528 80
WIRE 64 176 -48 176
WIRE 736 176 736 160
WIRE 736 176 384 176
WIRE 736 192 736 176
WIRE -32 272 -48 272
WIRE 64 272 48 272
WIRE 400 272 384 272
WIRE 496 272 480 272
WIRE 576 272 560 272
WIRE 736 288 736 272
WIRE -16 368 -48 368
WIRE 64 368 48 368
WIRE 400 368 384 368
WIRE 224 448 224 432
FLAG -144 80 0
FLAG 960 80 0
FLAG 848 80 0
FLAG 400 368 0
FLAG 224 448 0
FLAG -48 272 0
FLAG -48 368 0
FLAG 576 272 0
FLAG 736 288 0
FLAG 960 -32 OUT
FLAG -144 -32 IN
FLAG 480 80 0
FLAG -48 176 0
FLAG 528 112 0
FLAG -48 80 0
SYMBOL voltage -144 -32 R0
SYMATTR InstName V1
SYMATTR Value 12
SYMBOL schottky 624 -16 R270
WINDOW 0 32 32 VTop 2
WINDOW 3 0 32 VBottom 2
SYMATTR InstName D1
SYMATTR Value RB068L100
SYMATTR Description Diode
SYMATTR Type diode
SYMBOL cap 832 -16 R0
SYMATTR InstName C1
SYMATTR Value 10µ
SYMBOL res 720 176 R0
SYMATTR InstName R1
SYMATTR Value 71.5K
SYMBOL cap 496 288 R270
WINDOW 0 32 32 VTop 2
WINDOW 3 0 32 VBottom 2
SYMATTR InstName C2
SYMATTR Value 6800p
SYMBOL res 64 256 R90
WINDOW 0 0 56 VBottom 2
WINDOW 3 32 56 VTop 2
SYMATTR InstName R2
SYMATTR Value 121K
SYMBOL cap 400 64 M90
WINDOW 0 0 32 VBottom 2
WINDOW 3 32 32 VTop 2
SYMATTR InstName C4
SYMATTR Value 1µ
SYMBOL res 944 -32 R0
SYMATTR InstName Rload
SYMATTR Value 55
SYMBOL PowerProducts\\LT8361 224 224 R0
SYMATTR InstName U1
SYMBOL res 720 64 R0
SYMATTR InstName R3
SYMATTR Value 1Meg
SYMBOL ind2 160 -16 R270
WINDOW 0 32 56 VTop 2
WINDOW 3 4 56 VBottom 2
SYMATTR InstName L1
SYMATTR Value 22µ
SYMBOL cap 400 -48 M90
WINDOW 0 0 32 VBottom 2
WINDOW 3 32 32 VTop 2
SYMATTR InstName C5
SYMATTR Value 1µ
SYMBOL ind2 512 96 M180
WINDOW 0 36 80 Left 2
WINDOW 3 36 40 Left 2
SYMATTR InstName L2
SYMATTR Value 22µ
SYMBOL cap -16 352 M90
WINDOW 0 0 32 VBottom 2
WINDOW 3 32 32 VTop 2
SYMATTR InstName C3
SYMATTR Value .001µ
SYMBOL res 496 256 R90
WINDOW 0 0 56 VBottom 2
WINDOW 3 32 56 VTop 2
SYMATTR InstName R4
SYMATTR Value 16.2K
SYMBOL cap -64 -16 R0
SYMATTR InstName C6
SYMATTR Value 4.7µ
TEXT 712 416 Left 2 !.tran 2m startup
TEXT 384 -88 Left 2 !K L1 L2 1
TEXT -232 464 Left 2 ;Note:\n  A smaller SS capacitor is being used to reduce simulation time. See datasheet for typical values.\n  If the simulation model is not found please update with the "Sync Release" command from the "Tools" menu.\n  It remains the customer's responsibility to verify proper and reliable operation in the actual application.\n  Component substitution and printed circuit board layout may significantly affect circuit performance or reliability.\n  Contact your local sales representative for assistance. This circuit is distributed to customers only for use with LTC parts.\n  Copyright © 2018 Linear Technology Inc. All rights reserved.
TEXT 392 -104 Bottom 2 ;LT8361 - Low Iq Boost/SEPIC/Inverting DC/DC Converter with 2A, 100V Switch\nAutomotive 24V SEPIC Converter\nInput: 4V to 48V     Output: 24V @ 450mA, Fsw = 400KHz
