Version 4
SHEET 1 3180 3296
WIRE -496 512 -992 512
WIRE -368 512 -496 512
WIRE -352 512 -368 512
WIRE -240 512 -272 512
WIRE -224 512 -240 512
WIRE -112 512 -144 512
WIRE 192 512 -112 512
WIRE -496 592 -496 512
WIRE -368 592 -368 512
WIRE -240 592 -240 512
WIRE -112 592 -112 512
WIRE -1536 672 -1632 672
WIRE -1424 672 -1536 672
WIRE -1360 672 -1424 672
WIRE -1232 672 -1280 672
WIRE -1152 672 -1232 672
WIRE -1136 672 -1152 672
WIRE -992 672 -992 512
WIRE -992 672 -1040 672
WIRE -912 672 -992 672
WIRE -608 672 -848 672
WIRE 64 672 0 672
WIRE 192 672 192 512
WIRE 192 672 128 672
WIRE 384 672 192 672
WIRE 496 672 480 672
WIRE 640 672 496 672
WIRE 656 672 640 672
WIRE 752 672 736 672
WIRE 784 672 752 672
WIRE 832 672 784 672
WIRE 928 672 832 672
WIRE 1024 672 928 672
WIRE 1120 672 1024 672
WIRE -1536 688 -1536 672
WIRE -1424 688 -1424 672
WIRE -1232 688 -1232 672
WIRE -992 688 -992 672
WIRE 192 688 192 672
WIRE 832 688 832 672
WIRE 928 688 928 672
WIRE 1024 688 1024 672
WIRE 1120 688 1120 672
WIRE -1632 768 -1632 672
WIRE -1232 768 -1232 752
WIRE -720 768 -944 768
WIRE -608 768 -640 768
WIRE 32 768 0 768
WIRE 144 768 112 768
WIRE -1536 784 -1536 752
WIRE -1424 784 -1424 752
WIRE 832 784 832 752
WIRE 928 784 928 752
WIRE 1024 784 1024 752
WIRE 1120 784 1120 768
WIRE -992 800 -992 784
WIRE 192 800 192 784
WIRE -1056 848 -1056 720
WIRE -720 848 -1056 848
WIRE -608 848 -640 848
WIRE 240 848 0 848
WIRE 400 848 400 720
WIRE 400 848 320 848
WIRE -1632 864 -1632 848
WIRE -1152 928 -1152 672
WIRE -1152 928 -1232 928
WIRE -1040 928 -1152 928
WIRE -608 928 -1040 928
WIRE 496 928 496 672
WIRE 496 928 0 928
WIRE 512 928 496 928
WIRE -1232 944 -1232 928
WIRE -1152 944 -1152 928
WIRE 384 992 208 992
WIRE 496 992 496 928
WIRE 496 992 384 992
WIRE 384 1008 384 992
WIRE 496 1008 496 992
WIRE -1232 1024 -1232 1008
WIRE -1152 1024 -1152 1008
WIRE -1040 1024 -1040 1008
WIRE -608 1024 -1040 1024
WIRE 208 1024 208 992
WIRE 208 1024 0 1024
WIRE -1040 1040 -1040 1024
WIRE 384 1088 384 1072
WIRE 496 1088 496 1072
WIRE -880 1120 -896 1120
WIRE -768 1120 -816 1120
WIRE -608 1120 -768 1120
WIRE 48 1120 0 1120
WIRE 112 1120 48 1120
WIRE 640 1120 640 672
WIRE 640 1120 192 1120
WIRE 784 1120 784 672
WIRE -1040 1136 -1040 1120
WIRE 48 1136 48 1120
WIRE -768 1216 -768 1120
WIRE -720 1216 -768 1216
WIRE -608 1216 -640 1216
WIRE 48 1216 48 1200
WIRE 48 1216 0 1216
WIRE 112 1216 48 1216
WIRE 752 1216 752 672
WIRE 752 1216 192 1216
WIRE -816 1312 -832 1312
WIRE -720 1312 -752 1312
WIRE -608 1312 -720 1312
WIRE 784 1312 784 1200
WIRE 784 1312 0 1312
WIRE 784 1344 784 1312
WIRE -720 1408 -720 1312
WIRE -608 1408 -720 1408
WIRE -720 1424 -720 1408
WIRE 784 1440 784 1424
WIRE -608 1504 -720 1504
WIRE 32 1504 0 1504
WIRE -608 1584 -624 1584
WIRE 32 1584 0 1584
WIRE -304 1696 -304 1680
WIRE -112 1696 -112 1680
WIRE -496 1712 -496 1680
WIRE -496 1792 -496 1776
WIRE -304 1792 -304 1776
WIRE -112 1792 -112 1776
WIRE -304 1872 -304 1856
FLAG -1536 784 0
FLAG -304 1872 0
FLAG 1024 784 0
FLAG 1120 672 OUTPUT
FLAG -112 1792 0
FLAG 192 800 0
FLAG -1632 864 0
FLAG -1632 672 INPUT
FLAG -1040 1136 0
FLAG 32 1584 0
FLAG -1424 784 0
FLAG -896 1120 0
FLAG -832 1312 0
FLAG -624 1584 0
FLAG -992 800 0
FLAG -496 1792 0
FLAG 784 1440 0
FLAG 32 1504 0
FLAG 576 928 0
FLAG -1232 768 0
FLAG -1232 1024 0
FLAG 928 784 0
FLAG 832 784 0
FLAG 384 1088 0
FLAG 496 1088 0
FLAG -1152 1024 0
FLAG 1120 784 0
SYMBOL ind -240 528 R270
WINDOW 0 32 56 VTop 2
WINDOW 3 5 56 VBottom 2
SYMATTR InstName L1
SYMATTR Value 4.7µ
SYMATTR SpiceLine Rser=3.35m
SYMBOL res 768 1328 R0
SYMATTR InstName R8
SYMATTR Value 10K
SYMBOL res 768 1104 R0
SYMATTR InstName R7
SYMATTR Value 110K
SYMBOL cap -320 1792 R0
WINDOW 39 24 77 Left 2
SYMATTR InstName C4
SYMATTR Value 4.7n
SYMBOL cap 1008 688 R0
WINDOW 123 24 77 Left 2
SYMATTR InstName C41
SYMATTR Value 4.7µ
SYMATTR SpiceLine Rser=5m
SYMBOL res -128 1680 R0
SYMATTR InstName R5
SYMATTR Value 226K
SYMBOL res -320 1680 R0
SYMATTR InstName R6
SYMATTR Value 15K
SYMBOL cap 64 688 R270
WINDOW 0 32 32 VTop 2
WINDOW 3 0 32 VBottom 2
SYMATTR InstName C8
SYMATTR Value .1µ
SYMBOL res -1056 912 R0
SYMATTR InstName R9
SYMATTR Value 121K
SYMBOL res -1056 1024 R0
SYMATTR InstName R10
SYMATTR Value 100K
SYMBOL cap -1440 688 R0
WINDOW 123 24 53 Left 2
WINDOW 3 39 31 Left 2
SYMATTR Value2 x2
SYMATTR Value 10µ
SYMATTR InstName C37
SYMATTR SpiceLine Rser=5m
SYMBOL cap -816 1104 R90
WINDOW 0 0 32 VBottom 2
WINDOW 3 32 32 VTop 2
SYMATTR InstName C2
SYMATTR Value 4.7µ
SYMBOL res -736 1408 R0
SYMATTR InstName R19
SYMATTR Value 0
SYMBOL cap -752 1296 R90
WINDOW 0 0 32 VBottom 2
WINDOW 3 32 32 VTop 2
SYMATTR InstName C3
SYMATTR Value .47µ
SYMBOL res -624 1200 R90
WINDOW 0 0 56 VBottom 2
WINDOW 3 32 56 VTop 2
SYMATTR InstName R11
SYMATTR Value 100K
SYMBOL cap -912 688 R270
WINDOW 0 32 32 VTop 2
WINDOW 3 0 32 VBottom 2
SYMATTR InstName C7
SYMATTR Value .1µ
SYMBOL cap -512 1712 R0
SYMATTR InstName C5
SYMATTR Value 22n
SYMBOL res -256 496 R90
WINDOW 0 0 56 VBottom 2
WINDOW 3 32 56 VTop 2
SYMATTR InstName R1
SYMATTR Value 1m
SYMBOL res 208 1104 R90
WINDOW 0 0 56 VBottom 2
WINDOW 3 32 56 VTop 2
SYMATTR InstName R12
SYMATTR Value 10
SYMBOL res 208 1200 R90
WINDOW 0 0 56 VBottom 2
WINDOW 3 32 56 VTop 2
SYMATTR InstName R13
SYMATTR Value 10
SYMBOL cap 32 1136 R0
SYMATTR InstName C25
SYMATTR Value 1µ
SYMBOL res 640 656 M90
WINDOW 0 0 56 VBottom 2
WINDOW 3 32 56 VTop 2
SYMATTR InstName R3
SYMATTR Value 3m
SYMBOL cap 512 944 R270
WINDOW 0 32 32 VTop 2
WINDOW 3 0 32 VBottom 2
SYMATTR InstName C6
SYMATTR Value 1µ
SYMATTR SpiceLine Rser=5m
SYMBOL PowerProducts\\LT8392 -304 1136 R0
SYMATTR InstName U1
SYMBOL ind -1376 688 R270
WINDOW 0 32 56 VTop 2
WINDOW 3 5 56 VBottom 2
SYMATTR InstName L2
SYMATTR Value 1.5µ
SYMATTR SpiceLine Rser=2m
SYMBOL cap -1248 944 R0
WINDOW 123 24 53 Left 2
WINDOW 3 39 31 Left 2
SYMATTR Value2 x4
SYMATTR Value 10µ
SYMATTR InstName C11
SYMATTR SpiceLine Rser=5m
SYMBOL cap 912 688 R0
SYMATTR InstName C53
SYMATTR Value 4.7µ
SYMATTR SpiceLine Rser=5m
SYMBOL cap 368 1008 R0
WINDOW 123 24 53 Left 2
WINDOW 3 39 31 Left 2
SYMATTR Value2 x4
SYMATTR Value 22µ
SYMATTR InstName C13
SYMATTR SpiceLine Rser=5m
SYMBOL res 128 752 R90
WINDOW 0 0 56 VBottom 2
WINDOW 3 32 56 VTop 2
SYMATTR InstName R15
SYMATTR Value 3
SYMBOL res -624 752 R90
WINDOW 0 0 56 VBottom 2
WINDOW 3 32 56 VTop 2
SYMATTR InstName R16
SYMATTR Value 3
SYMBOL res -624 832 R90
WINDOW 0 0 56 VBottom 2
WINDOW 3 32 56 VTop 2
SYMATTR InstName R17
SYMATTR Value 3
SYMBOL cap -1168 944 R0
SYMATTR InstName C1
SYMATTR Value 1µ
SYMATTR SpiceLine Rser=5m
SYMBOL res 336 832 R90
WINDOW 0 0 56 VBottom 2
WINDOW 3 32 56 VTop 2
SYMATTR InstName R14
SYMATTR Value 3
SYMBOL polcap 816 688 R0
SYMATTR InstName C23
SYMATTR Value 470µ
SYMATTR SpiceLine Rser=18m
SYMBOL polcap 480 1008 R0
SYMATTR InstName C21
SYMATTR Value 470µ
SYMATTR SpiceLine Rser=18m
SYMBOL polcap -1552 688 R0
SYMATTR InstName C18
SYMATTR Value 120µ
SYMATTR SpiceLine Rser=100m
SYMBOL polcap -1248 688 R0
SYMATTR InstName C20
SYMATTR Value 120µ
SYMATTR SpiceLine Rser=100m
SYMBOL nmos -944 688 M0
WINDOW 0 -36 34 Left 2
WINDOW 3 -137 60 Left 2
SYMATTR InstName M2
SYMATTR Value IPB011N04L
SYMBOL nmos -1136 720 R270
WINDOW 0 74 15 VRight 2
WINDOW 3 95 -17 VRight 2
SYMATTR InstName M1
SYMATTR Value IPB011N04L
SYMBOL nmos 144 688 R0
SYMATTR InstName M3
SYMATTR Value IPB011N04L
SYMBOL nmos 480 720 M270
WINDOW 0 74 49 VLeft 2
WINDOW 3 99 94 VLeft 2
SYMATTR InstName M4
SYMATTR Value IPB011N04L
SYMBOL voltage -1632 752 R0
WINDOW 123 0 0 Left 2
WINDOW 39 0 0 Left 2
WINDOW 3 -98 148 Left 2
SYMATTR InstName Vin1
SYMATTR Value PWL(0 0 0.1m 11 3m 11 4m 3.2 6m 3.2 7m 18)
SYMBOL current 1120 688 R0
WINDOW 123 0 0 Left 2
WINDOW 39 0 0 Left 2
SYMATTR InstName I1
SYMATTR Value PWL(0 0 1m 0 2m 3 7m 3 8m 12)
TEXT 240 1384 Left 2 !.tran 9m startup
TEXT -320 432 Bottom 2 ;LT8392 - 60V 200kHz Synchronous 4-Switch Buck-Boost Controller with Spread Spectrum\nHigh Efficiency Buck-Boost Voltage Regulator\nInput: 3V to 60V       Output: 12V @ 12A, Fsw = 200kHz\nTo emulate 12V battery and severe cold crank, input starts at 11V, falls to 3.2V, and rises to 18V.
TEXT -848 1880 Left 2 ;Note:\n  If the simulation model is not found please update with the "Sync Release" command from the "Tools" menu.\n  It remains the customer's responsibility to verify proper and reliable operation in the actual application.\n  Component substitution and printed circuit board layout may significantly affect circuit performance or reliability.\n  Contact your local sales representative for assistance. This circuit is distributed to customers only for use with ADI parts.\n  Copyright © 2022 Analog Devices. All rights reserved.
TEXT -56 1800 Left 2 ;200kHz
