Version 4
SHEET 1 2500 1476
WIRE 96 -400 -256 -400
WIRE 192 -400 96 -400
WIRE 288 -400 192 -400
WIRE 1088 -400 288 -400
WIRE -256 -384 -256 -400
WIRE 576 -368 384 -368
WIRE 672 -368 576 -368
WIRE 96 -352 96 -400
WIRE 192 -352 192 -400
WIRE 288 -352 288 -400
WIRE 384 -352 384 -368
WIRE 576 -352 576 -368
WIRE -256 -288 -256 -304
WIRE 0 -288 -256 -288
WIRE 496 -288 464 -288
WIRE -256 -272 -256 -288
WIRE 496 -272 496 -288
WIRE 576 -272 576 -288
WIRE 0 -192 -128 -192
WIRE 496 -192 496 -208
WIRE 496 -192 464 -192
WIRE 544 -192 496 -192
WIRE 720 -192 624 -192
WIRE 800 -192 720 -192
WIRE 1008 -192 800 -192
WIRE 1312 -192 1008 -192
WIRE -256 -176 -256 -192
WIRE 720 -176 720 -192
WIRE 1008 -176 1008 -192
WIRE 1312 -176 1312 -192
WIRE 720 -96 720 -112
WIRE 720 -96 464 -96
WIRE 800 -96 800 -112
WIRE 800 -96 720 -96
WIRE 880 -96 800 -96
WIRE 1008 -96 1008 -112
WIRE 1008 -96 960 -96
WIRE 1008 -80 1008 -96
WIRE 1312 -80 1312 -96
WIRE -128 0 -128 -192
WIRE -112 0 -128 0
WIRE 0 0 -32 0
WIRE 496 0 464 0
WIRE 496 16 496 0
WIRE -128 96 -128 0
WIRE -112 96 -128 96
WIRE 0 96 -32 96
WIRE 496 96 496 80
WIRE 496 96 464 96
WIRE 544 96 496 96
WIRE 640 96 624 96
WIRE 672 96 672 -368
WIRE 672 96 640 96
WIRE 784 96 672 96
WIRE 1008 96 784 96
WIRE 1312 96 1008 96
WIRE 672 112 672 96
WIRE 1008 112 1008 96
WIRE 1312 112 1312 96
WIRE -128 192 -128 96
WIRE -112 192 -128 192
WIRE 0 192 -32 192
WIRE 672 192 672 176
WIRE 672 192 464 192
WIRE 784 192 784 176
WIRE 784 192 672 192
WIRE 864 192 784 192
WIRE 1008 192 1008 176
WIRE 1008 192 944 192
WIRE 1008 208 1008 192
WIRE 1312 208 1312 192
WIRE -128 288 -128 192
WIRE -112 288 -128 288
WIRE 0 288 -32 288
WIRE 640 288 640 96
WIRE 640 288 464 288
WIRE -208 384 -224 384
WIRE -128 384 -128 288
WIRE -128 384 -144 384
WIRE 0 384 -128 384
WIRE 528 384 464 384
WIRE 656 384 608 384
WIRE 784 384 656 384
WIRE 1008 384 784 384
WIRE 1312 384 1008 384
WIRE 656 400 656 384
WIRE 1008 400 1008 384
WIRE 1312 400 1312 384
WIRE -80 480 -96 480
WIRE 0 480 -16 480
WIRE 656 480 656 464
WIRE 656 480 464 480
WIRE 784 480 784 464
WIRE 784 480 656 480
WIRE 864 480 784 480
WIRE 1008 480 1008 464
WIRE 1008 480 944 480
WIRE 1008 496 1008 480
WIRE 1312 496 1312 480
WIRE -128 576 -128 384
WIRE 0 576 -128 576
WIRE 512 576 464 576
WIRE 1440 576 512 576
WIRE 1600 576 1440 576
WIRE 512 592 512 576
WIRE 1440 592 1440 576
WIRE 1600 592 1600 576
WIRE 0 672 -32 672
WIRE 512 672 464 672
WIRE 592 672 512 672
WIRE 736 672 672 672
WIRE 832 672 736 672
WIRE 960 672 896 672
WIRE 1088 672 1088 -400
WIRE 1088 672 960 672
WIRE 1184 672 1088 672
WIRE 1312 672 1184 672
WIRE 736 688 736 672
WIRE 1088 688 1088 672
WIRE 1184 688 1184 672
WIRE 1312 688 1312 672
WIRE 1440 688 1440 656
WIRE 1600 688 1600 672
WIRE -80 768 -96 768
WIRE 0 768 -16 768
WIRE 688 768 464 768
WIRE 960 768 960 672
WIRE 1088 784 1088 752
WIRE 1184 784 1184 752
WIRE 1312 784 1312 768
WIRE 736 800 736 784
WIRE -80 864 -96 864
WIRE 0 864 -16 864
WIRE 960 864 960 848
WIRE 960 864 464 864
WIRE 960 880 960 864
WIRE -128 944 -128 576
WIRE 80 944 80 928
WIRE 80 944 -128 944
WIRE 160 944 160 928
WIRE 240 944 240 928
WIRE 320 944 320 928
WIRE 400 944 400 928
WIRE 960 976 960 960
WIRE 160 1040 160 1024
FLAG 400 944 0
FLAG 160 1040 0
FLAG -224 384 0
FLAG 1312 496 0
FLAG 1312 384 OUT3
FLAG 1312 208 0
FLAG 1312 96 OUT2
FLAG 1312 -80 0
FLAG 1312 -192 OUT1
FLAG 1600 688 0
FLAG 1440 576 BAT
FLAG 736 800 0
FLAG 960 976 0
FLAG 1088 784 0
FLAG 1184 784 0
FLAG 320 944 0
FLAG 240 944 0
FLAG -256 -176 0
FLAG -96 480 0
FLAG -96 864 0
FLAG -32 672 0
FLAG 1312 672 OUT4
FLAG 1008 -80 0
FLAG 1008 208 0
FLAG 1008 496 0
FLAG 576 -272 0
FLAG 1440 688 0
FLAG 1312 784 0
FLAG -96 768 0
SYMBOL res 144 928 R0
SYMATTR InstName R1
SYMATTR Value 30.1K
SYMBOL cap -144 368 R90
WINDOW 0 0 32 VBottom 2
WINDOW 3 32 32 VTop 2
SYMATTR InstName C1
SYMATTR Value 4.7µ
SYMBOL res 944 752 R0
SYMATTR InstName R2
SYMATTR Value 3300K
SYMBOL cap 1072 688 R0
SYMATTR InstName C2
SYMATTR Value 100µ
SYMBOL ind 512 400 R270
WINDOW 0 32 56 VTop 2
WINDOW 3 5 56 VBottom 2
SYMATTR InstName L1
SYMATTR Value 1µ
SYMATTR SpiceLine Rser=50m
SYMBOL res 768 368 R0
SYMATTR InstName R3
SYMATTR Value 187K
SYMBOL res 960 464 R90
WINDOW 0 0 56 VBottom 2
WINDOW 3 32 56 VTop 2
SYMATTR InstName R4
SYMATTR Value 150K
SYMBOL cap 640 400 R0
SYMATTR InstName C3
SYMATTR Value 22p
SYMBOL cap 992 400 R0
SYMATTR InstName C4
SYMATTR Value 100µ
SYMBOL ind 528 112 R270
WINDOW 0 32 56 VTop 2
WINDOW 3 5 56 VBottom 2
SYMATTR InstName L2
SYMATTR Value 2.2µ
SYMATTR SpiceLine Rser=10m
SYMBOL res 768 80 R0
SYMATTR InstName R5
SYMATTR Value 464K
SYMBOL res 960 176 R90
WINDOW 0 0 56 VBottom 2
WINDOW 3 32 56 VTop 2
SYMATTR InstName R6
SYMATTR Value 200K
SYMBOL cap 656 112 R0
SYMATTR InstName C5
SYMATTR Value 4.7p
SYMBOL cap 992 112 R0
SYMATTR InstName C6
SYMATTR Value 100µ
SYMBOL cap 480 16 R0
SYMATTR InstName C7
SYMATTR Value .1µ
SYMBOL ind 528 -176 R270
WINDOW 0 32 56 VTop 2
WINDOW 3 5 56 VBottom 2
SYMATTR InstName L3
SYMATTR Value 4.7µ
SYMATTR SpiceLine Rser=10m
SYMBOL res 784 -208 R0
SYMATTR InstName R7
SYMATTR Value 806K
SYMBOL res 976 -112 R90
WINDOW 0 0 56 VBottom 2
WINDOW 3 32 56 VTop 2
SYMATTR InstName R8
SYMATTR Value 200K
SYMBOL cap 704 -176 R0
SYMATTR InstName C8
SYMATTR Value 2.2p
SYMBOL cap 992 -176 R0
SYMATTR InstName C9
SYMATTR Value 47µ
SYMBOL cap 480 -272 R0
SYMATTR InstName C10
SYMATTR Value .1µ
SYMBOL voltage 1600 576 R0
WINDOW 123 24 138 Left 2
WINDOW 39 24 117 Left 2
SYMATTR InstName V1
SYMATTR Value PWL(0 5 2m 5 2.4m 3 3.8m 3 4.85m 6)
SYMBOL ind 576 688 R270
WINDOW 0 32 56 VTop 2
WINDOW 3 5 56 VBottom 2
SYMATTR InstName L4
SYMATTR Value 2.2µ
SYMATTR SpiceLine Rser=10m
SYMBOL PowerProducts\\LT8603 240 288 R0
SYMATTR InstName U1
SYMBOL res 496 576 R0
SYMATTR InstName R9
SYMATTR Value 6m
SYMBOL NMOS 688 688 R0
SYMATTR InstName Q1
SYMATTR Value RSS065N06
SYMBOL schottky 832 688 R270
WINDOW 0 32 32 VTop 2
WINDOW 3 0 32 VBottom 2
SYMATTR InstName D1
SYMATTR Value MBRS360
SYMATTR Description Diode
SYMATTR Type diode
SYMBOL res 944 864 R0
SYMATTR InstName R10
SYMATTR Value 365K
SYMBOL cap 1168 688 R0
WINDOW 123 29 62 Left 2
WINDOW 3 38 39 Left 2
SYMATTR Value2 x2
SYMATTR Value 4.7µ
SYMATTR InstName C11
SYMBOL res -272 -400 R0
SYMATTR InstName R11
SYMATTR Value 1.8Meg
SYMBOL res -272 -288 R0
SYMATTR InstName R12
SYMATTR Value 1.2Meg
SYMBOL cap -16 464 R90
WINDOW 0 0 32 VBottom 2
WINDOW 3 32 32 VTop 2
SYMATTR InstName C12
SYMATTR Value 4.7µ
SYMBOL cap -16 848 R90
WINDOW 0 0 32 VBottom 2
WINDOW 3 32 32 VTop 2
SYMATTR InstName C13
SYMATTR Value .001µ
SYMBOL cap 560 -352 R0
SYMATTR InstName C14
SYMATTR Value .1µ
SYMBOL res -16 272 R90
WINDOW 0 0 56 VBottom 2
WINDOW 3 32 56 VTop 2
SYMATTR InstName R13
SYMATTR Value 100K
SYMBOL res -16 176 R90
WINDOW 0 0 56 VBottom 2
WINDOW 3 32 56 VTop 2
SYMATTR InstName R14
SYMATTR Value 100K
SYMBOL res -16 80 R90
WINDOW 0 0 56 VBottom 2
WINDOW 3 32 56 VTop 2
SYMATTR InstName R15
SYMATTR Value 100K
SYMBOL res -16 -16 R90
WINDOW 0 0 56 VBottom 2
WINDOW 3 32 56 VTop 2
SYMATTR InstName R16
SYMATTR Value 100K
SYMBOL cap 1424 592 R0
WINDOW 123 29 60 Left 2
WINDOW 3 37 32 Left 2
SYMATTR Value2 x2
SYMATTR Value 4.7µ
SYMATTR InstName C15
SYMATTR SpiceLine Rser=5m
SYMBOL cap -16 752 R90
WINDOW 0 0 32 VBottom 2
WINDOW 3 32 32 VTop 2
SYMATTR InstName C16
SYMATTR Value .001µ
SYMBOL res 1296 -192 R0
SYMATTR InstName Rload1
SYMATTR Value 3.3
SYMBOL res 1296 96 R0
SYMATTR InstName Rload2
SYMATTR Value 1.32
SYMBOL res 1296 384 R0
SYMATTR InstName Rload3
SYMATTR Value 1
SYMBOL res 1296 672 R0
SYMATTR InstName Rload4
SYMATTR Value 8
TEXT 1328 952 Left 2 !.tran 5m startup
TEXT 584 -416 Bottom 2 ;LT8603 - 42V, Low IQ, Quad Output Triple Monolithic Buck Converter and Boost Controller\nCold Crank Tolerant Automotive Triple Output Supply\nInput: 3V to 42V       Output: 5V @ 1.5A, 3.3V @ 2.5A & 1.8V @ 1.8A (8V @ 1A Boost)
TEXT -128 1064 Left 2 ;Note:\n  Smaller values are used for TK/SS capacitors to reduce simulation time. See datasheet for typical values.\n  If the simulation model is not found please update with the "Sync Release" command from the "Tools" menu.\n  It remains the customer's responsibility to verify proper and reliable operation in the actual application.\n  Component substitution and printed circuit board layout may significantly affect circuit performance or reliability.\n  Contact your local sales representative for assistance. This circuit is distributed to customers only for use with Analog Devices parts.\n  Copyright © 2018 Analog Devices Inc. All rights reserved.
