Version 4
SHEET 1 1316 728
WIRE -32 0 -144 0
WIRE 64 0 -32 0
WIRE 112 0 64 0
WIRE 464 0 400 0
WIRE 608 0 544 0
WIRE -144 16 -144 0
WIRE -32 16 -32 0
WIRE 64 96 64 0
WIRE 112 96 64 96
WIRE 432 96 400 96
WIRE -144 112 -144 96
WIRE -32 112 -32 80
WIRE 432 112 432 96
WIRE 32 192 0 192
WIRE 112 192 96 192
WIRE 432 192 432 176
WIRE 432 192 400 192
WIRE 496 192 432 192
WIRE 608 192 608 0
WIRE 608 192 576 192
WIRE 656 192 608 192
WIRE 800 192 656 192
WIRE 912 192 800 192
WIRE 656 208 656 192
WIRE 800 208 800 192
WIRE 912 208 912 192
WIRE 32 288 0 288
WIRE 112 288 96 288
WIRE 608 288 608 192
WIRE 608 288 400 288
WIRE 656 304 656 288
WIRE 656 304 608 304
WIRE 800 304 800 272
WIRE 912 304 912 288
WIRE 656 320 656 304
WIRE 16 384 0 384
WIRE 112 384 96 384
WIRE 608 384 608 304
WIRE 608 384 400 384
WIRE 656 416 656 400
WIRE 256 448 256 432
FLAG 256 448 0
FLAG 0 384 0
FLAG 0 288 0
FLAG -144 112 0
FLAG 0 192 0
FLAG 800 304 0
FLAG 656 416 0
FLAG 912 304 0
FLAG 912 192 OUT
FLAG -144 0 IN
FLAG -32 112 0
SYMBOL res 112 368 R90
WINDOW 0 0 56 VBottom 2
WINDOW 3 32 56 VTop 2
SYMATTR InstName R1
SYMATTR Value 18.2K
SYMBOL cap 96 272 R90
WINDOW 0 0 32 VBottom 2
WINDOW 3 32 32 VTop 2
SYMATTR InstName C1
SYMATTR Value 10n
SYMBOL voltage -144 0 R0
WINDOW 123 0 0 Left 2
WINDOW 39 0 0 Left 2
SYMATTR InstName V1
SYMATTR Value 12
SYMBOL cap 96 208 M270
WINDOW 0 32 32 VTop 2
WINDOW 3 0 32 VBottom 2
SYMATTR InstName C2
SYMATTR Value 1µ
SYMBOL ind 480 208 R270
WINDOW 0 32 56 VTop 2
WINDOW 3 5 56 VBottom 2
SYMATTR InstName L1
SYMATTR Value 33µ
SYMATTR SpiceLine Rser=.2
SYMBOL cap 416 112 R0
SYMATTR InstName C3
SYMATTR Value 47n
SYMBOL cap 784 208 R0
SYMATTR InstName C4
SYMATTR Value 22µ
SYMATTR SpiceLine Rser=10m
SYMBOL res 640 192 R0
SYMATTR InstName R2
SYMATTR Value 1.62Meg
SYMBOL res 640 304 R0
SYMATTR InstName R3
SYMATTR Value 301K
SYMBOL res 896 192 R0
SYMATTR InstName Rload
SYMATTR Value 100
SYMBOL LT8618 256 192 R0
SYMATTR InstName U1
SYMBOL res 560 -16 R90
WINDOW 0 0 56 VBottom 2
WINDOW 3 32 56 VTop 2
SYMATTR InstName R4
SYMATTR Value 100K
SYMBOL cap -48 16 R0
SYMATTR InstName C5
SYMATTR Value 22µ
SYMATTR SpiceLine Rser=10m
TEXT 784 432 Left 2 !.tran 5m startup
TEXT 352 -64 Bottom 2 ;LT8618 - High Efficiency 65V/100mA Synchronous Buck\nHigh Efficiency 2MHz 5V Step-Down Converter\nInput: 5.5V to 65V     Output: 5V @ 100mA, Fsw = 2MHz
TEXT -280 464 Left 2 ;Note:\n  If the simulation model is not found please update with the "Sync Release" command from the "Tools" menu.\n  It remains the customer's responsibility to verify proper and reliable operation in the actual application.\n  Component substitution and printed circuit board layout may significantly affect circuit performance or reliability.\n  Contact your local sales representative for assistance. This circuit is distributed to customers only for use with ADI parts.\n  Copyright © 2020 Analog Device Inc. All rights reserved.
