Version 4
SHEET 1 1848 712
WIRE -16 -64 -128 -64
WIRE 96 -64 -16 -64
WIRE 256 -64 96 -64
WIRE -128 -48 -128 -64
WIRE 256 -48 256 -64
WIRE -16 -32 -16 -64
WIRE 96 0 96 -64
WIRE 112 0 96 0
WIRE 416 0 400 0
WIRE 496 0 480 0
WIRE -128 48 -128 32
WIRE -16 48 -16 32
WIRE 112 96 96 96
WIRE 592 96 400 96
WIRE 432 192 400 192
WIRE 432 208 432 192
WIRE 16 288 0 288
WIRE 112 288 96 288
WIRE 432 288 432 272
WIRE 432 288 400 288
WIRE 480 288 432 288
WIRE 592 288 592 96
WIRE 592 288 560 288
WIRE 720 288 592 288
WIRE 816 288 720 288
WIRE 912 288 816 288
WIRE 592 304 592 288
WIRE 720 304 720 288
WIRE 816 304 816 288
WIRE 912 304 912 288
WIRE 192 352 192 336
WIRE 320 384 320 336
WIRE 592 384 320 384
WIRE 720 384 720 368
WIRE 720 384 592 384
WIRE 592 400 592 384
WIRE 816 400 816 368
WIRE 912 400 912 384
WIRE 592 496 592 480
FLAG 192 352 0
FLAG 0 288 0
FLAG -128 48 0
FLAG 496 0 0
FLAG 816 400 0
FLAG 592 496 0
FLAG 912 400 0
FLAG 912 288 OUT
FLAG -128 -64 IN
FLAG 96 96 0
FLAG -16 48 0
SYMBOL res 112 272 R90
WINDOW 0 0 56 VBottom 2
WINDOW 3 32 56 VTop 2
SYMATTR InstName R1
SYMATTR Value 20K
SYMBOL voltage -128 -64 R0
WINDOW 123 0 0 Left 2
WINDOW 39 0 0 Left 2
SYMATTR InstName V1
SYMATTR Value 12
SYMBOL cap 416 16 R270
WINDOW 0 32 32 VTop 2
WINDOW 3 0 32 VBottom 2
SYMATTR InstName C2
SYMATTR Value 1µ
SYMBOL ind 464 304 R270
WINDOW 0 32 56 VTop 2
WINDOW 3 5 56 VBottom 2
SYMATTR InstName L1
SYMATTR Value 4.7µ
SYMATTR SpiceLine Ipk=2.1 Rser=25m
SYMBOL cap 416 208 R0
SYMATTR InstName C3
SYMATTR Value .1µ
SYMBOL cap 800 304 R0
SYMATTR InstName C4
SYMATTR Value 22µ
SYMATTR SpiceLine V=6.3 Irms=0 Rser=0.005 Lser=0
SYMBOL res 576 288 R0
SYMATTR InstName R2
SYMATTR Value 1Meg
SYMBOL res 576 384 R0
SYMATTR InstName R3
SYMATTR Value 191k
SYMBOL cap 704 304 R0
SYMATTR InstName C5
SYMATTR Value 4.7p
SYMBOL cap -32 -32 R0
SYMATTR InstName C1
SYMATTR Value 2.2µ
SYMBOL PowerProducts\\LT8619 256 144 R0
SYMATTR InstName U1
SYMBOL res 896 288 R0
SYMATTR InstName R4
SYMATTR Value 4.17
TEXT 816 480 Left 2 !.tran 0.4m startup
TEXT -168 352 Left 2 ;Rt=20K for Fsw=2MHz
TEXT 872 248 Left 2 ;5V/1.2A
TEXT 360 -168 Center 2 ;LT8619 - 60V, 1.2A Synchronous Monolithic Step-Down Regulator with 6µA Quiescent Current\n2MHz Synchronous Buck Converter\nInput: 6V to 48V    Output: 5V @ 1.2A, Fsw=2MHz
TEXT -264 504 Left 2 ;Note:\n  If the simulation model is not found please update with the "Sync Release" command from the "Tools" menu.\n  It remains the customer's responsibility to verify proper and reliable operation in the actual application.\n  Component substitution and printed circuit board layout may significantly affect circuit performance or reliability.\n  Contact your local sales representative for assistance. This circuit is distributed to customers only for use with Analog Devices parts.\n  Copyright © 2018 Analog Devices Inc. All rights reserved.
