Version 4
SHEET 1 5112 680
WIRE 336 -416 -96 -416
WIRE 480 -416 336 -416
WIRE 1232 -416 480 -416
WIRE -176 -352 -464 -352
WIRE -48 -352 -176 -352
WIRE 64 -352 -48 -352
WIRE 144 -352 64 -352
WIRE 752 -352 144 -352
WIRE -464 -336 -464 -352
WIRE -176 -336 -176 -352
WIRE 64 -336 64 -352
WIRE 752 -336 752 -352
WIRE 992 -336 992 -368
WIRE 480 -320 480 -416
WIRE -48 -304 -48 -352
WIRE 256 -288 240 -288
WIRE 336 -288 336 -416
WIRE 336 -288 320 -288
WIRE -464 -240 -464 -256
WIRE -176 -240 -176 -272
WIRE 64 -240 64 -272
WIRE 592 -240 560 -240
WIRE 688 -240 656 -240
WIRE 752 -224 752 -256
WIRE 848 -224 752 -224
WIRE 992 -224 992 -256
WIRE 992 -224 912 -224
WIRE 144 -208 144 -352
WIRE 336 -208 336 -288
WIRE 752 -208 752 -224
WIRE 992 -160 992 -224
WIRE -48 -144 -48 -224
WIRE 32 -144 -48 -144
WIRE 480 -144 480 -256
WIRE 480 -144 448 -144
WIRE 560 -128 560 -240
WIRE 592 -128 560 -128
WIRE 688 -128 688 -240
WIRE 688 -128 672 -128
WIRE 704 -128 688 -128
WIRE -96 -80 -96 -416
WIRE 32 -80 -96 -80
WIRE 944 -80 448 -80
WIRE 32 -16 16 -16
WIRE 560 -16 560 -128
WIRE 560 -16 448 -16
WIRE 624 -16 592 -16
WIRE 752 -16 752 -112
WIRE 752 -16 704 -16
WIRE 752 0 752 -16
WIRE 992 0 992 -64
WIRE 1024 0 992 0
WIRE 1136 0 1104 0
WIRE 1184 0 1136 0
WIRE 1232 0 1232 -416
WIRE 1232 0 1184 0
WIRE 1344 0 1232 0
WIRE 1440 0 1344 0
WIRE 1232 16 1232 0
WIRE 1344 16 1344 0
WIRE 1440 16 1440 0
WIRE -80 48 -96 48
WIRE 16 48 16 -16
WIRE 16 48 -16 48
WIRE 32 48 16 48
WIRE 512 48 448 48
WIRE 592 48 592 -16
WIRE 592 48 512 48
WIRE 32 112 16 112
WIRE 512 112 448 112
WIRE 624 112 512 112
WIRE 752 112 752 80
WIRE 752 112 704 112
WIRE 1232 112 1232 80
WIRE 1344 112 1344 80
WIRE 1440 112 1440 96
WIRE 752 144 752 112
WIRE -80 176 -96 176
WIRE 32 176 0 176
WIRE 992 176 992 0
WIRE 992 176 448 176
WIRE 1184 192 1184 0
WIRE -256 240 -304 240
WIRE -144 240 -176 240
WIRE 32 240 -144 240
WIRE 1136 240 1136 0
WIRE 1136 240 448 240
WIRE -304 256 -304 240
WIRE -144 256 -144 240
WIRE -48 304 -64 304
WIRE 32 304 16 304
WIRE 1184 304 1184 272
WIRE 1184 304 448 304
WIRE 1184 336 1184 304
WIRE -304 352 -304 320
WIRE -144 352 -144 320
WIRE 240 368 240 352
WIRE 1184 432 1184 416
FLAG -464 -240 0
FLAG 240 368 0
FLAG -96 48 0
FLAG 16 112 0
FLAG -96 176 0
FLAG -64 304 0
FLAG -304 352 0
FLAG 752 144 0
FLAG 1232 112 0
FLAG 1440 112 0
FLAG 1184 432 0
FLAG -464 -352 IN
FLAG 1440 0 OUT
FLAG -176 -240 0
FLAG 240 -288 0
FLAG 992 -368 0
FLAG 1344 112 0
FLAG -144 352 0
FLAG 64 -240 0
SYMBOL PowerProducts\\LT8711 240 80 R0
SYMATTR InstName U1
SYMBOL voltage -464 -352 R0
WINDOW 123 24 124 Left 2
WINDOW 39 24 152 Left 2
SYMATTR Value2 +1.5m 14 +0.25m 8
SYMATTR SpiceLine +1m 8 +0.5m 20)
SYMATTR Value PWL(0 0. 0.1m 14
SYMATTR InstName V1
SYMBOL cap 464 -320 R0
SYMATTR InstName C1
SYMATTR Value 2.2µ
SYMBOL cap -16 32 R90
WINDOW 0 0 32 VBottom 2
WINDOW 3 32 32 VTop 2
SYMATTR InstName C2
SYMATTR Value 2.2µ
SYMBOL res 16 160 R90
WINDOW 0 0 56 VBottom 2
WINDOW 3 32 56 VTop 2
SYMATTR InstName R1
SYMATTR Value 118K
SYMBOL cap 16 320 M270
WINDOW 0 32 32 VTop 2
WINDOW 3 0 32 VBottom 2
SYMATTR InstName C4
SYMATTR Value .01µ
SYMBOL nmos 704 -208 R0
WINDOW 3 60 67 Left 2
WINDOW 0 54 29 Left 2
SYMATTR Value BSC093N04LS
SYMATTR InstName Q1
SYMBOL ind 736 -352 R0
SYMATTR InstName L1
SYMATTR Value 8.2µ
SYMATTR SpiceLine Ipk=30 Rser=0.006 Rpar=772.44 Cpar=0 mfg="Coilcraft" pn="XAL1510-822"
SYMBOL cap 1216 16 R0
WINDOW 123 28 58 Left 2
WINDOW 3 42 35 Left 2
SYMATTR Value2 x3
SYMATTR Value 22µ
SYMATTR InstName C5
SYMATTR SpiceLine Rser=0.001
SYMBOL res 1168 176 R0
SYMATTR InstName R3
SYMATTR Value 1Meg
SYMBOL res 1168 320 R0
SYMATTR InstName R4
SYMATTR Value 71.5K
SYMBOL res 1424 0 R0
SYMATTR InstName Rload
SYMATTR Value 4
SYMBOL res -64 -320 R0
WINDOW 3 33 76 Left 2
SYMATTR Value 100K
SYMATTR InstName R5
SYMBOL cap -192 -336 R0
WINDOW 3 39 34 Left 2
WINDOW 123 28 55 Left 2
SYMATTR Value 10µ
SYMATTR Value2 x3
SYMATTR InstName C6
SYMBOL cap 320 -304 R90
WINDOW 0 0 32 VBottom 2
WINDOW 3 32 32 VTop 2
SYMATTR InstName C8
SYMATTR Value 2.2µ
SYMBOL res 736 -16 R0
WINDOW 0 42 49 Left 2
WINDOW 3 36 91 Left 2
SYMATTR InstName R6
SYMATTR Value 2m
SYMBOL res 720 -32 R90
WINDOW 0 0 56 VBottom 2
WINDOW 3 32 56 VTop 2
SYMATTR InstName R7
SYMATTR Value 10
SYMBOL res 720 96 R90
WINDOW 0 0 56 VBottom 2
WINDOW 3 32 56 VTop 2
SYMATTR InstName R8
SYMATTR Value 10
SYMBOL cap 496 48 R0
WINDOW 0 33 13 Left 2
WINDOW 3 31 48 Left 2
SYMATTR InstName C9
SYMATTR Value .01µ
SYMBOL res 688 -144 R90
WINDOW 0 0 56 VBottom 2
WINDOW 3 32 56 VTop 2
SYMATTR InstName R9
SYMATTR Value 3.3
SYMBOL diode 656 -256 R90
WINDOW 0 0 32 VBottom 2
WINDOW 3 32 32 VTop 2
SYMATTR InstName D1
SYMATTR Value 1N4148
SYMBOL cap 848 -240 M90
WINDOW 3 32 32 VTop 2
WINDOW 123 58 32 VTop 2
WINDOW 0 0 32 VBottom 2
SYMATTR Value 10µ
SYMATTR Value2 x3
SYMATTR InstName C10
SYMBOL ind 1008 -240 R180
WINDOW 0 36 80 Left 2
WINDOW 3 36 40 Left 2
SYMATTR InstName L2
SYMATTR Value 15µ
SYMATTR SpiceLine Ipk=23 Rser=0.00917 Rpar=1413 Cpar=0 mfg="Coilcraft" pn="XAL1510-153"
SYMBOL pmos 944 -160 R0
WINDOW 3 58 64 Left 2
WINDOW 0 62 24 Left 2
SYMATTR Value Si4401DY
SYMATTR InstName Q2
SYMBOL res 1120 -16 R90
WINDOW 0 0 56 VBottom 2
WINDOW 3 32 56 VTop 2
SYMATTR InstName R10
SYMATTR Value 2m
SYMBOL polcap 1328 16 R0
SYMATTR InstName C11
SYMATTR Value 270µ
SYMATTR SpiceLine Rser=0.025
SYMBOL res -160 224 R90
WINDOW 0 0 56 VBottom 2
WINDOW 3 32 56 VTop 2
SYMATTR InstName R2
SYMATTR Value 49.9K
SYMBOL cap -320 256 R0
SYMATTR InstName C3
SYMATTR Value 4700p
SYMBOL cap -160 256 R0
SYMATTR InstName C12
SYMATTR Value 22p
SYMBOL cap 48 -336 R0
SYMATTR InstName C13
SYMATTR Value 4.7µ
TEXT 1144 496 Left 2 !.tran 3.5m startup
TEXT 512 -432 Bottom 2 ;LT8711 - Micropower Synchronous Multitopology Controller with 42V Input Capability\nAutomotive Micropower Synchronous Sepic Converter\nInput: 4.5V to 40V    Output: 12V @ 3A, Fsw=200kHz
TEXT 600 344 Left 2 ;L1 COILCRAFT, XAL1510-822MEB\nL2 COILCRAFT, XAL1510-153MEB\nC11 PANASONIC, 16SVPC270M
TEXT -168 416 Left 2 ;Note:\n  To widen the range of available inductors the non-coupled version of the SEPIC converter is modeled.\n  If the simulation model is not found please update with the "Sync Release" command from the "Tools" menu.\n  It remains the customer's responsibility to verify proper and reliable operation in the actual application.\n  Component substitution and printed circuit board layout may significantly affect circuit performance or reliability.\n  Contact your local sales representative for assistance. This circuit is distributed to customers only for use with\n  Analog Devices products.  Copyright © 2018 Analog Devices. All rights reserved.
