Version 4
SHEET 1 4960 2420
WIRE 224 -496 96 -496
WIRE 432 -496 304 -496
WIRE 464 -496 432 -496
WIRE 624 -496 560 -496
WIRE -176 -368 -464 -368
WIRE -112 -368 -176 -368
WIRE 96 -368 96 -496
WIRE 96 -368 -112 -368
WIRE 128 -368 96 -368
WIRE 240 -368 208 -368
WIRE 528 -368 240 -368
WIRE 624 -368 624 -496
WIRE 624 -368 592 -368
WIRE 656 -368 624 -368
WIRE 768 -368 736 -368
WIRE 880 -368 768 -368
WIRE 992 -368 880 -368
WIRE -464 -352 -464 -368
WIRE -112 -352 -112 -368
WIRE 768 -352 768 -368
WIRE 880 -352 880 -368
WIRE 992 -352 992 -368
WIRE 96 -288 96 -368
WIRE 608 -288 96 -288
WIRE 240 -272 240 -368
WIRE -464 -256 -464 -272
WIRE -112 -256 -112 -288
WIRE 432 -256 432 -496
WIRE 576 -256 432 -256
WIRE 880 -256 880 -288
WIRE 992 -256 992 -272
WIRE 240 -160 240 -176
WIRE 304 -160 240 -160
WIRE 240 -144 240 -160
WIRE 240 -48 240 -64
WIRE 368 -48 240 -48
WIRE 240 -32 240 -48
WIRE 192 0 192 -192
WIRE 304 0 304 -160
WIRE 368 0 368 -48
WIRE 480 0 480 -448
WIRE -176 16 -176 -368
WIRE -16 16 -176 16
WIRE -176 32 -176 16
WIRE -16 80 -16 16
WIRE 128 80 -16 80
WIRE 576 80 576 -256
WIRE 576 80 544 80
WIRE -176 128 -176 112
WIRE 128 128 -176 128
WIRE 576 128 544 128
WIRE 608 128 608 -288
WIRE 608 128 576 128
WIRE -176 144 -176 128
WIRE 608 144 608 128
WIRE 32 176 16 176
WIRE 128 176 112 176
WIRE 576 176 576 128
WIRE 576 176 544 176
WIRE -64 224 -80 224
WIRE 16 224 16 176
WIRE 16 224 0 224
WIRE 128 224 16 224
WIRE 608 224 608 208
WIRE 608 224 544 224
WIRE -176 240 -176 224
WIRE 32 272 16 272
WIRE 128 272 112 272
WIRE 768 272 768 -272
WIRE 768 272 544 272
WIRE 832 320 544 320
WIRE 832 336 832 320
WIRE 576 384 544 384
WIRE 624 384 576 384
WIRE 736 384 704 384
WIRE 576 400 576 384
WIRE 736 400 736 384
WIRE 832 432 832 416
WIRE 192 448 192 432
WIRE 320 448 320 432
WIRE 432 448 432 432
WIRE 576 480 576 464
WIRE 736 480 736 464
WIRE 320 528 320 512
WIRE 432 528 432 512
FLAG 880 -256 0
FLAG 992 -256 0
FLAG -464 -256 0
FLAG 992 -368 OUT
FLAG 320 528 0
FLAG 576 480 0
FLAG 736 480 0
FLAG -176 240 0
FLAG 16 272 0
FLAG 432 528 0
FLAG 192 448 0
FLAG -80 224 0
FLAG -464 -368 IN
FLAG 240 -32 0
FLAG 832 432 0
FLAG -112 -256 0
SYMBOL res 16 192 R270
WINDOW 0 32 56 VTop 2
WINDOW 3 0 56 VBottom 2
SYMATTR InstName R1
SYMATTR Value 100K
SYMBOL cap 528 -352 R270
WINDOW 0 32 32 VTop 2
WINDOW 3 0 32 VBottom 2
WINDOW 123 -21 32 VBottom 2
SYMATTR InstName C1
SYMATTR Value 22µ
SYMATTR Value2 x4
SYMATTR SpiceLine V=25 Irms=0 Rser=0 Lser=0 mfg="Murata" pn="GRM21BR61E226ME44" type="X5R"
SYMBOL LT8714 336 208 R0
SYMATTR InstName U1
SYMATTR Description Synchronous Boost/Inverting DC/DC Converter with Soft-Start
SYMBOL res 224 -160 R0
WINDOW 3 29 80 Left 2
SYMATTR Value 2m
SYMATTR InstName R2
SYMBOL res 208 -480 R270
WINDOW 0 32 56 VTop 2
WINDOW 3 0 56 VBottom 2
SYMATTR InstName R3
SYMATTR Value 7m
SYMBOL NMOS 192 -272 R0
WINDOW 3 58 65 Left 2
WINDOW 0 55 29 Left 2
SYMATTR Value BSC093N04LS
SYMATTR InstName Q1
SYMBOL PMOS 560 -448 M270
WINDOW 0 54 45 VTop 2
WINDOW 3 -14 71 VLeft 2
SYMATTR InstName Q2
SYMATTR Value FDD4141
SYMBOL cap 304 448 R0
SYMATTR InstName C2
SYMATTR Value .068µ
SYMBOL cap 416 448 R0
SYMATTR InstName C3
SYMATTR Value .022µ
SYMBOL cap 560 400 R0
SYMATTR InstName C4
SYMATTR Value 100p
SYMBOL cap 720 400 R0
SYMATTR InstName C5
SYMATTR Value .01µ
SYMBOL res 608 400 R270
WINDOW 0 32 56 VTop 2
WINDOW 3 0 56 VBottom 2
SYMATTR InstName R4
SYMATTR Value 6.98K
SYMBOL res 128 256 R90
WINDOW 0 0 56 VBottom 2
WINDOW 3 32 56 VTop 2
SYMATTR InstName R5
SYMATTR Value 178K
SYMBOL res -192 128 R0
SYMATTR InstName R6
SYMATTR Value 10K
SYMBOL res -192 16 R0
SYMATTR InstName R7
SYMATTR Value 57.6K
SYMBOL cap 0 208 R90
WINDOW 0 0 32 VBottom 2
WINDOW 3 32 32 VTop 2
SYMATTR InstName C6
SYMATTR Value 2.2µ
SYMBOL cap 864 -352 R0
WINDOW 123 29 55 Left 2
WINDOW 3 39 34 Left 2
SYMATTR Value2 x2
SYMATTR InstName C7
SYMATTR Value 100µ
SYMATTR SpiceLine Rser=2m
SYMBOL cap 592 144 R0
SYMATTR InstName C8
SYMATTR Value 2.2µ
SYMBOL res 752 -368 R0
SYMATTR InstName R8
SYMATTR Value 73.2K
SYMBOL VOLTAGE -464 -368 R0
WINDOW 123 24 138 Left 2
WINDOW 39 24 117 Left 2
SYMATTR Value PWL(0 0 1m 12 +1u 12)
SYMATTR InstName V1
SYMBOL VOLTAGE 832 320 R0
WINDOW 123 24 138 Left 2
WINDOW 39 24 117 Left 2
SYMATTR InstName V2
SYMATTR Value PWL(0 0 20u 1 6m 1 10m 0.1)
SYMBOL res 976 -368 R0
SYMATTR InstName Rload
SYMATTR Value 1
SYMBOL ind 640 -352 R270
WINDOW 0 32 56 VTop 2
WINDOW 3 5 56 VBottom 2
SYMATTR InstName L1
SYMATTR Value 15µ
SYMATTR SpiceLine Ipk=23 Rser=0.00917 Rpar=1413 Cpar=0 mfg="Coilcraft" pn="XAL1510-153"
SYMBOL ind 112 -352 R270
WINDOW 0 32 56 VTop 2
WINDOW 3 5 56 VBottom 2
SYMATTR InstName L2
SYMATTR Value 15µ
SYMATTR SpiceLine Ipk=23 Rser=0.00917 Rpar=1413 Cpar=0 mfg="Coilcraft" pn="XAL1510-153"
SYMBOL cap -128 -352 R0
WINDOW 123 31 54 Left 2
WINDOW 3 38 32 Left 2
SYMATTR Value2 x2
SYMATTR InstName C9
SYMATTR Value 100µ
SYMATTR SpiceLine Rser=2m
TEXT 824 240 Left 2 !.tran 12m startup
TEXT -224 536 Left 2 ;Note:\n  The non-coupled topology is employed to expand availability of inductors and decrease cost.\n  If the simulation model is not found please update with the "Sync Release" command from the "Tools" menu.\n  It remains the customer's responsibility to verify proper and reliable operation in the actual application.\n  Component substitution and printed circuit board layout may significantly affect circuit performance or reliability.\n  Contact your local sales representative for assistance. This circuit is distributed to customers only for use with\n  Analog Devices products.  Copyright © 2018 Analog Devices. All rights reserved.
TEXT 328 -552 Bottom 2 ;LT8714 - Bipolar Output Synchronous Controller with Seamless Four Quadrant Operation\nFour Quadrant Converter Using Uncoupled Inductors\nInput: 10V to 14V       Output: -5V to 5V @ -5A to 5A, Fsw = 200kHz
