Version 4
SHEET 1 2004 1212
WIRE -624 80 -720 80
WIRE -480 80 -624 80
WIRE -400 80 -480 80
WIRE -224 80 -320 80
WIRE 368 80 -224 80
WIRE 512 80 368 80
WIRE 656 80 512 80
WIRE -720 96 -720 80
WIRE -624 96 -624 80
WIRE -480 96 -480 80
WIRE -224 96 -224 80
WIRE 368 112 368 80
WIRE 512 112 512 80
WIRE 1072 112 848 112
WIRE 1280 112 1152 112
WIRE 656 176 656 80
WIRE -720 192 -720 176
WIRE -624 192 -624 160
WIRE -480 192 -480 176
WIRE -224 192 -224 176
WIRE -128 192 -224 192
WIRE -64 192 -128 192
WIRE 320 192 -16 192
WIRE -224 208 -224 192
WIRE -128 208 -128 192
WIRE -16 208 -16 192
WIRE 928 208 928 192
WIRE 368 224 368 208
WIRE 512 240 512 192
WIRE 992 240 992 224
WIRE -720 304 -720 272
WIRE -224 304 -224 288
WIRE -128 304 -128 272
WIRE -16 304 -16 288
WIRE 464 320 224 320
WIRE 752 320 736 320
WIRE 848 320 848 112
WIRE 848 320 832 320
WIRE 896 320 848 320
WIRE 224 336 224 320
WIRE 512 352 512 336
WIRE 1280 352 1280 112
WIRE 1280 352 1232 352
WIRE 656 384 656 240
WIRE 656 384 544 384
WIRE 704 384 656 384
WIRE 896 384 784 384
WIRE -720 400 -720 384
WIRE 544 400 544 384
WIRE 656 400 656 384
WIRE 224 432 224 416
WIRE 992 480 992 464
WIRE 544 496 544 464
WIRE 656 496 656 480
WIRE 928 512 928 496
WIRE 1008 608 848 608
WIRE 1232 608 1088 608
WIRE 928 704 928 688
WIRE 992 736 992 720
WIRE 752 816 720 816
WIRE 848 816 848 608
WIRE 848 816 832 816
WIRE 896 816 848 816
WIRE 1232 848 1232 608
WIRE 1232 848 1168 848
WIRE -64 880 -64 192
WIRE 896 880 -64 880
WIRE 992 976 992 960
WIRE 928 1008 928 992
FLAG -720 400 0
FLAG -720 272 V+
FLAG -624 80 Voc
FLAG -224 80 Vtop
FLAG -720 192 0
FLAG -16 304 0
FLAG 224 432 0
FLAG 928 192 V+
FLAG 736 320 0
FLAG 992 224 V+
FLAG 928 512 0
FLAG 992 480 0
FLAG 928 688 V+
FLAG 720 816 0
FLAG 992 720 V+
FLAG 928 1008 0
FLAG 992 976 0
FLAG 1280 352 I_PV
FLAG 1232 848 V_PV
FLAG 544 496 0
FLAG -624 192 0
FLAG -480 192 0
FLAG -224 304 0
FLAG -128 304 0
FLAG 368 224 0
FLAG 512 352 0
FLAG 656 496 0
SYMBOL voltage -720 288 R0
WINDOW 123 0 0 Left 2
WINDOW 39 0 0 Left 2
SYMATTR InstName V1
SYMATTR Value 5
SYMBOL Opamps\\LTC2058 1056 352 R0
SYMATTR InstName U1
SYMBOL res -240 80 R0
SYMATTR InstName R1
SYMATTR Value 1Meg
SYMBOL res -240 192 R0
SYMATTR InstName R2
SYMATTR Value 100K
SYMBOL res 640 384 R0
WINDOW 39 36 97 Left 2
SYMATTR SpiceLine pwr=2
SYMATTR InstName R3
SYMATTR Value 1
SYMBOL cap 640 176 R0
SYMATTR InstName C1
SYMATTR Value 2.5m
SYMBOL voltage -16 192 R0
WINDOW 123 0 0 Left 2
WINDOW 39 0 0 Left 2
WINDOW 3 34 61 Left 2
SYMATTR Value PULSE(5 0 100m 1n 1n 800m)
SYMATTR InstName V2
SYMBOL diode -640 96 R0
SYMATTR InstName D1
SYMATTR Value PV_Panel
SYMBOL res -416 96 R270
WINDOW 0 32 56 VTop 2
WINDOW 3 0 56 VBottom 2
SYMATTR InstName R4
SYMATTR Value 10m
SYMBOL res -496 80 R0
SYMATTR InstName R5
SYMATTR Value 1K
SYMBOL current -720 176 M180
WINDOW 0 24 80 Left 2
WINDOW 3 24 0 Left 2
WINDOW 123 24 -42 Left 2
WINDOW 39 24 -21 Left 2
SYMATTR InstName I1
SYMATTR Value .47
SYMBOL voltage 224 320 R0
WINDOW 123 0 0 Left 2
WINDOW 39 0 0 Left 2
WINDOW 3 42 83 Left 2
SYMATTR Value PULSE(0 5 400m 1n)
SYMATTR InstName V3
SYMBOL res 496 96 R0
WINDOW 39 36 97 Left 2
SYMATTR SpiceLine pwr=2
SYMATTR InstName R6
SYMATTR Value 5
SYMBOL cap -144 208 R0
SYMATTR InstName C2
SYMATTR Value 1p
SYMBOL nmos 320 112 R0
SYMATTR InstName Q1
SYMATTR Value FDS3812
SYMBOL nmos 464 240 R0
SYMATTR InstName Q2
SYMATTR Value FDS3812
SYMBOL diode 1168 368 R270
WINDOW 0 32 32 VTop 2
WINDOW 3 0 32 VBottom 2
SYMATTR InstName D2
SYMATTR Value 1N4148
SYMBOL res 1056 128 R270
WINDOW 0 32 56 VTop 2
WINDOW 3 0 56 VBottom 2
SYMATTR InstName R7
SYMATTR Value 3k
SYMBOL res 736 336 R270
WINDOW 0 32 56 VTop 2
WINDOW 3 0 56 VBottom 2
SYMATTR InstName R8
SYMATTR Value 1K
SYMBOL res 800 368 R90
WINDOW 0 0 56 VBottom 2
WINDOW 3 32 56 VTop 2
SYMATTR InstName R9
SYMATTR Value 1K
SYMBOL Opamps\\LTC2058 1056 848 R0
SYMATTR InstName U2
SYMBOL res 992 624 R270
WINDOW 0 32 56 VTop 2
WINDOW 3 0 56 VBottom 2
SYMATTR InstName R10
SYMATTR Value 2K
SYMBOL res 736 832 R270
WINDOW 0 32 56 VTop 2
WINDOW 3 0 56 VBottom 2
SYMATTR InstName R11
SYMATTR Value 2K
SYMBOL zener 528 464 M180
WINDOW 0 24 64 Left 2
WINDOW 3 24 0 Left 2
SYMATTR InstName D3
SYMATTR Value 1N750
SYMATTR Description Diode
SYMATTR Type diode
TEXT 352 64 Bottom 2 ;LTC2058 - High Voltage, Low Noise Zero-Drift Operational Amplifier\nPhotovoltaic Module Sweep Measurement\nInput: 21V, 0.5A PV Panel     Output: 0-5V
TEXT -544 880 Left 2 ;Note:\n  If the simulation model is not found please update with the "Sync Release" command from the "Tools" menu.\n  It remains the customer's responsibility to verify proper and reliable operation in the actual application.\n  Component substitution and printed circuit board layout may significantly affect circuit performance or reliability.\n  Contact your local sales representative for assistance. This circuit is distributed to customers only for use with ADI parts.\n  Copyright © 2019 Analog Devices Inc. All rights reserved.
TEXT -720 448 Left 2 !.model PV_Panel D(Is=10n Rs=0.5 \n+N=46.6 Cjo=10n M=.5 Eg=49.95 \n+Xti=135 BV=30 IBV=.001 Vj=.4 \n+Iave=1 Vpk=30 mfg=Generic type=PV)
TEXT 1152 1000 Left 2 !.tran 1.5
TEXT -632 8 Left 2 ;PV Panel + Parasitics
TEXT 1208 888 Left 2 ;V_PV = Vin/5.5
TEXT 1256 400 Left 2 ;I_PV = Iin*(4A/V)
LINE Normal -288 448 -288 32 1
