Version 4
SHEET 1 1308 1196
WIRE -416 -144 -480 -144
WIRE -304 -144 -336 -144
WIRE -160 -144 -304 -144
WIRE 96 -144 -80 -144
WIRE -304 -48 -304 -144
WIRE -272 -48 -304 -48
WIRE -160 -48 -208 -48
WIRE -48 -48 -80 -48
WIRE -192 48 -192 32
WIRE -304 96 -304 -48
WIRE -224 96 -304 96
WIRE -48 128 -48 -48
WIRE -48 128 -80 128
WIRE -16 128 -48 128
WIRE 96 128 96 -144
WIRE 96 128 64 128
WIRE 112 128 96 128
WIRE -448 160 -720 160
WIRE -416 160 -448 160
WIRE -304 160 -336 160
WIRE -224 160 -304 160
WIRE 96 160 96 128
WIRE -304 176 -304 160
WIRE -720 192 -720 160
WIRE -192 224 -192 208
WIRE -144 224 -144 208
WIRE 96 256 96 224
WIRE -304 272 -304 240
WIRE -720 288 -720 272
WIRE -448 384 -448 160
WIRE -416 384 -448 384
WIRE -304 384 -336 384
WIRE -160 384 -304 384
WIRE 96 384 -80 384
WIRE -304 480 -304 384
WIRE -256 480 -304 480
WIRE -160 480 -192 480
WIRE -48 480 -80 480
WIRE -192 592 -192 576
WIRE -304 640 -304 480
WIRE -224 640 -304 640
WIRE -48 672 -48 480
WIRE -48 672 -80 672
WIRE -16 672 -48 672
WIRE 96 672 96 384
WIRE 96 672 64 672
WIRE 128 672 96 672
WIRE -944 704 -960 704
WIRE -864 704 -944 704
WIRE -784 704 -864 704
WIRE -480 704 -480 -144
WIRE -480 704 -528 704
WIRE -224 704 -480 704
WIRE 96 704 96 672
WIRE -480 720 -480 704
WIRE -960 736 -960 704
WIRE -864 736 -864 704
WIRE -192 768 -192 752
WIRE -144 768 -144 752
WIRE -480 800 -480 784
WIRE 96 800 96 768
WIRE -960 832 -960 816
WIRE -864 832 -864 800
WIRE -656 848 -656 816
FLAG -656 848 0
FLAG -480 800 0
FLAG -864 832 0
FLAG -192 224 0
FLAG -304 272 0
FLAG 96 256 0
FLAG -192 768 0
FLAG 96 800 0
FLAG -720 288 0
FLAG -960 832 0
FLAG -944 704 +V
FLAG -144 224 +V
FLAG -192 32 +V
FLAG -192 576 +V
FLAG -144 768 +V
FLAG 112 128 OUT-NONINV
FLAG 128 672 OUT-INV
FLAG -720 160 IN
SYMBOL res -320 -160 R90
WINDOW 0 0 56 VBottom 2
WINDOW 3 32 56 VTop 2
SYMATTR InstName R1
SYMATTR Value 11K
SYMBOL res -64 -160 R90
WINDOW 0 0 56 VBottom 2
WINDOW 3 32 56 VTop 2
SYMATTR InstName R2
SYMATTR Value 100K
SYMBOL res -64 -64 R90
WINDOW 0 0 56 VBottom 2
WINDOW 3 32 56 VTop 2
SYMATTR InstName R3
SYMATTR Value 100
SYMBOL res 80 112 R90
WINDOW 0 0 56 VBottom 2
WINDOW 3 32 56 VTop 2
SYMATTR InstName R4
SYMATTR Value 100
SYMBOL res -320 144 R90
WINDOW 0 0 56 VBottom 2
WINDOW 3 32 56 VTop 2
SYMATTR InstName R5
SYMATTR Value 11K
SYMBOL res -320 368 R90
WINDOW 0 0 56 VBottom 2
WINDOW 3 32 56 VTop 2
SYMATTR InstName R6
SYMATTR Value 15.8K
SYMBOL res -64 368 R90
WINDOW 0 0 56 VBottom 2
WINDOW 3 32 56 VTop 2
SYMATTR InstName R7
SYMATTR Value 158K
SYMBOL res -64 464 R90
WINDOW 0 0 56 VBottom 2
WINDOW 3 32 56 VTop 2
SYMATTR InstName R8
SYMATTR Value 100
SYMBOL res 80 656 R90
WINDOW 0 0 56 VBottom 2
WINDOW 3 32 56 VTop 2
SYMATTR InstName R9
SYMATTR Value 100
SYMBOL cap -320 176 R0
SYMATTR InstName C1
SYMATTR Value 1µ
SYMBOL cap -208 -64 R90
WINDOW 0 0 32 VBottom 2
WINDOW 3 32 32 VTop 2
SYMATTR InstName C2
SYMATTR Value 10n
SYMBOL cap -192 464 R90
WINDOW 0 0 32 VBottom 2
WINDOW 3 32 32 VTop 2
SYMATTR InstName C3
SYMATTR Value 10n
SYMBOL cap 80 224 M180
WINDOW 0 24 56 Left 2
WINDOW 3 24 8 Left 2
SYMATTR InstName C4
SYMATTR Value 10n
SYMBOL cap 80 768 M180
WINDOW 0 24 56 Left 2
WINDOW 3 24 8 Left 2
SYMATTR InstName C5
SYMATTR Value 10n
SYMBOL cap -880 800 M180
WINDOW 0 24 56 Left 2
WINDOW 3 24 8 Left 2
SYMATTR InstName C6
SYMATTR Value 0.1µ
SYMBOL cap -496 784 M180
WINDOW 0 24 56 Left 2
WINDOW 3 24 8 Left 2
SYMATTR InstName C7
SYMATTR Value 10µ
SYMBOL voltage -960 720 R0
WINDOW 123 0 0 Left 0
WINDOW 39 0 0 Left 0
SYMATTR InstName V1
SYMATTR Value 3.3
SYMBOL voltage -720 176 R0
WINDOW 123 24 138 Left 2
WINDOW 39 24 117 Left 2
SYMATTR InstName V2
SYMATTR Value SINE(1.25 .125 3)
SYMBOL Opamps\\LTC2064 -192 128 R0
SYMATTR InstName U1
SYMBOL Opamps\\LTC2064 -192 672 R0
SYMATTR InstName U2
SYMBOL PowerProducts\\LT1790-1.25 -656 704 R0
SYMATTR InstName U3
TEXT -1008 872 Left 2 ;Note:\n  If the simulation model is not found please update with the "Sync Release" command from the "Tools" menu.\n  It remains the customer's responsibility to verify proper and reliable operation in the actual application.\n  Component substitution and printed circuit board layout may significantly affect circuit performance or reliability\n  Contact your local sales representative for assistance. This circuit is distributed to customers only for use with ADI parts\n  Copyright © 2018 Analog Devices Inc. All rights reserved.
TEXT -400 -200 Bottom 2 ;LTC2064 - Dual 2uA Supply Current, Low Ib, Zero-Drift Amplifiers\nLT1790-1.25 - Micropower Low Dropout Reference\nMicropower Single-to-Differential Input ADC Driver\nInput: Max 250mVpp, 1.25V Offset Required     Output: 1.25V Offset, Full Scale 2.5Vpp
TEXT -328 312 Left 2 ;Gain = +10V/V, Filter BW = 100Hz
TEXT -328 824 Left 2 ;Gain = -10V/V, Filter BW = 100Hz
TEXT 216 816 Left 2 !.tran 1
