Version 4
SHEET 1 1560 1180
WIRE -144 256 -304 256
WIRE 64 256 -64 256
WIRE 96 256 64 256
WIRE 224 256 176 256
WIRE 64 320 64 256
WIRE -224 352 -224 336
WIRE -160 384 -160 368
WIRE -304 464 -304 256
WIRE -256 464 -304 464
WIRE 864 480 736 480
WIRE 1072 480 928 480
WIRE 64 496 64 384
WIRE 64 496 16 496
WIRE 224 496 224 256
WIRE 496 496 224 496
WIRE 624 512 624 496
WIRE -256 528 -304 528
WIRE 496 560 496 496
WIRE 224 576 224 496
WIRE 736 576 736 480
WIRE 864 576 736 576
WIRE 1072 576 1072 480
WIRE 1072 576 944 576
WIRE 64 592 64 496
WIRE -160 624 -160 608
WIRE 624 624 624 592
WIRE 624 624 544 624
WIRE -224 656 -224 640
WIRE 816 656 816 640
WIRE 224 672 224 656
WIRE 880 688 880 672
WIRE 64 768 64 672
WIRE 224 768 224 736
WIRE 224 768 64 768
WIRE 384 768 224 768
WIRE 496 768 496 656
WIRE 496 768 384 768
WIRE 560 768 496 768
WIRE 736 768 736 576
WIRE 736 768 640 768
WIRE 784 768 736 768
WIRE 1072 800 1072 576
WIRE 1072 800 1056 800
WIRE 1088 800 1072 800
WIRE 784 832 736 832
WIRE -224 848 -224 816
WIRE -80 848 -80 816
WIRE 880 928 880 912
WIRE -224 944 -224 928
WIRE -80 944 -80 928
WIRE 816 960 816 944
FLAG -304 528 0
FLAG 1088 800 Out
FLAG 384 768 WE
FLAG 736 832 0
FLAG 64 496 CE
FLAG 224 496 RE
FLAG -224 944 0
FLAG -224 816 V+
FLAG -80 944 0
FLAG -80 816 V-
FLAG -224 336 V+
FLAG -160 368 V+
FLAG 624 496 V+
FLAG 816 640 V+
FLAG 880 672 V+
FLAG -224 656 V-
FLAG -160 624 V-
FLAG 816 960 V-
FLAG 880 928 V-
SYMBOL current 64 672 M180
WINDOW 0 24 80 Left 2
WINDOW 3 24 0 Left 2
WINDOW 123 0 0 Left 2
WINDOW 39 0 0 Left 2
SYMATTR InstName Isensor1
SYMATTR Value {i_sense}
SYMBOL cap 208 672 R0
SYMATTR InstName Csensor
SYMATTR Value 123m
SYMBOL res 848 592 R270
WINDOW 0 32 56 VTop 2
WINDOW 3 0 56 VBottom 2
SYMATTR InstName R3
SYMATTR Value 35.7K
SYMBOL res 544 784 R270
WINDOW 0 32 56 VTop 2
WINDOW 3 0 56 VBottom 2
SYMATTR InstName Rburden
SYMATTR Value 5
SYMBOL res -160 272 R270
WINDOW 0 32 56 VTop 2
WINDOW 3 0 56 VBottom 2
SYMATTR InstName R1
SYMATTR Value 15K
SYMBOL cap 48 320 R0
SYMATTR InstName C1
SYMATTR Value .1µ
SYMBOL res 208 560 R0
SYMATTR InstName Rsensor
SYMATTR Value 2.055
SYMBOL pjf 544 560 M0
WINDOW 0 7 23 Right 2
WINDOW 3 5 49 Right 2
SYMATTR InstName J177
SYMBOL res 608 496 R0
SYMATTR InstName R4
SYMATTR Value 1Meg
SYMBOL voltage -224 832 R0
WINDOW 123 0 0 Left 2
WINDOW 39 0 0 Left 2
SYMATTR InstName V1
SYMATTR Value 5
SYMBOL voltage -80 832 R0
WINDOW 123 0 0 Left 2
WINDOW 39 0 0 Left 2
SYMATTR InstName V2
SYMATTR Value -5
SYMBOL Opamps\\LTC2058 -96 496 R0
SYMATTR InstName U1
SYMBOL Opamps\\LTC2058 944 800 R0
WINDOW 3 10 74 Left 2
SYMATTR InstName U2
SYMBOL res 80 272 R270
WINDOW 0 32 56 VTop 2
WINDOW 3 0 56 VBottom 2
SYMATTR InstName R2
SYMATTR Value 15K
SYMBOL cap 928 464 R90
WINDOW 0 0 32 VBottom 2
WINDOW 3 32 32 VTop 2
SYMATTR InstName C2
SYMATTR Value 10n
TEXT 672 368 Bottom 2 ;LTC2058 - High Voltage, Low Noise Zero-Drift Operational Amplifier\nCarbon Monoxide Sensor\nInput: CO 0-2000ppm, 350nV/ppmCO     Ouput: 2.5mV/ppmCO, 0-5V
TEXT 192 808 Center 2 ;City Technology 4CM \nCO Sensor internal model
TEXT -312 984 Left 2 ;Note:\n  If the simulation model is not found please update with the "Sync Release" command from the "Tools" menu.\n  It remains the customer's responsibility to verify proper and reliable operation in the actual application.\n  Component substitution and printed circuit board layout may significantly affect circuit performance or reliability.\n  Contact your local sales representative for assistance. This circuit is distributed to customers only for use with ADI parts.\n  Copyright © 2019 Analog Devices Inc. All rights reserved.
TEXT 8 712 Right 2 !.step param i_sense 0 140u 1u
TEXT 8 736 Right 2 ;Sensor CO level range: 0 to 2000 ppm; 0 to 140uA
TEXT 1024 944 Left 2 !.op
RECTANGLE Normal 362 870 26 534 2
