Version 4
SHEET 1 1512 876
WIRE -368 -304 -464 -304
WIRE -272 -304 -368 -304
WIRE 0 -304 -272 -304
WIRE 448 -304 0 -304
WIRE -464 -288 -464 -304
WIRE -368 -288 -368 -304
WIRE -272 -288 -272 -304
WIRE -160 -240 -176 -240
WIRE -80 -240 -96 -240
WIRE 144 -240 -80 -240
WIRE 288 -240 144 -240
WIRE 528 -240 288 -240
WIRE 560 -240 528 -240
WIRE 640 -240 624 -240
WIRE 144 -224 144 -240
WIRE 288 -224 288 -240
WIRE -464 -192 -464 -208
WIRE -368 -192 -368 -224
WIRE -272 -192 -272 -224
WIRE 0 -160 0 -304
WIRE 32 -160 0 -160
WIRE 448 -160 448 -304
WIRE 448 -160 416 -160
WIRE 0 -64 0 -160
WIRE 32 -64 0 -64
WIRE 448 -64 448 -160
WIRE 448 -64 416 -64
WIRE -80 32 -80 -240
WIRE -64 32 -80 32
WIRE 32 32 16 32
WIRE 432 32 416 32
WIRE 528 32 528 -240
WIRE 528 32 512 32
WIRE 32 128 -80 128
WIRE 528 128 416 128
WIRE -80 144 -80 128
WIRE 528 144 528 128
WIRE -704 224 -832 224
WIRE -608 224 -704 224
WIRE -512 224 -608 224
WIRE -432 224 -512 224
WIRE -336 224 -432 224
WIRE -240 224 -336 224
WIRE -80 224 -80 208
WIRE -80 224 -160 224
WIRE 32 224 -80 224
WIRE 528 224 528 208
WIRE 528 224 416 224
WIRE 624 224 528 224
WIRE 784 224 704 224
WIRE 896 224 784 224
WIRE 992 224 896 224
WIRE 1088 224 992 224
WIRE 1184 224 1088 224
WIRE 1280 224 1184 224
WIRE -832 240 -832 224
WIRE -704 240 -704 224
WIRE -608 240 -608 224
WIRE -512 240 -512 224
WIRE -432 240 -432 224
WIRE -336 240 -336 224
WIRE 784 240 784 224
WIRE 896 240 896 224
WIRE 992 240 992 224
WIRE 1088 240 1088 224
WIRE 1184 240 1184 224
WIRE 1280 240 1280 224
WIRE 32 320 -32 320
WIRE 480 320 416 320
WIRE -832 336 -832 320
WIRE -704 336 -704 304
WIRE -608 336 -608 304
WIRE -512 336 -512 304
WIRE -432 336 -432 304
WIRE -336 336 -336 320
WIRE -336 336 -432 336
WIRE -32 336 -32 320
WIRE -32 336 -336 336
WIRE 480 336 480 320
WIRE 784 336 784 320
WIRE 784 336 480 336
WIRE 896 336 896 304
WIRE 896 336 784 336
WIRE 992 336 992 304
WIRE 1088 336 1088 304
WIRE 1184 336 1184 304
WIRE 1280 336 1280 320
WIRE -336 352 -336 336
WIRE 784 352 784 336
WIRE -144 416 -240 416
WIRE 32 416 -144 416
WIRE 576 416 416 416
WIRE 704 416 576 416
WIRE -240 432 -240 416
WIRE -144 432 -144 416
WIRE 576 432 576 416
WIRE 704 432 704 416
WIRE -336 448 -336 432
WIRE 784 448 784 432
WIRE -240 512 -240 496
WIRE 32 512 -48 512
WIRE 480 512 416 512
WIRE 704 512 704 496
WIRE -144 528 -144 512
WIRE -48 528 -48 512
WIRE 480 528 480 512
WIRE 576 528 576 512
WIRE 96 592 96 576
WIRE 224 592 224 576
WIRE 352 592 352 576
WIRE -144 608 -144 592
WIRE -48 608 -48 592
WIRE 480 608 480 592
WIRE 576 608 576 592
WIRE 96 688 96 672
FLAG 224 592 0
FLAG 352 592 0
FLAG -464 -192 0
FLAG 784 448 0
FLAG 1280 336 0
FLAG 1280 224 OUT2
FLAG -336 448 0
FLAG -704 336 0
FLAG -832 336 0
FLAG -832 224 OUT1
FLAG -464 -304 IN
FLAG -176 -240 0
FLAG -608 336 0
FLAG -144 608 0
FLAG -240 512 0
FLAG 96 688 0
FLAG 576 608 0
FLAG 704 512 0
FLAG -272 -192 0
FLAG -368 -192 0
FLAG -512 336 0
FLAG 992 336 0
FLAG 1088 336 0
FLAG 1184 336 0
FLAG 640 -240 0
FLAG -48 608 0
FLAG 480 608 0
SYMBOL PowerProducts\\LTC3636 224 272 R0
SYMATTR InstName U1
SYMBOL voltage -464 -304 R0
WINDOW 123 0 0 Left 2
WINDOW 39 0 0 Left 2
SYMATTR InstName V1
SYMATTR Value 12
SYMBOL ind 608 240 R270
WINDOW 0 32 56 VTop 2
WINDOW 3 5 56 VBottom 2
SYMATTR InstName L1
SYMATTR Value 1µ
SYMATTR SpiceLine Rser=10m
SYMBOL res 768 336 R0
SYMATTR InstName R2
SYMATTR Value 26.7K
SYMBOL res 1264 224 R0
SYMATTR InstName Rload2
SYMATTR Value .42
SYMBOL cap 880 240 R0
WINDOW 123 24 77 Left 2
SYMATTR Value 33p
SYMATTR InstName C4
SYMBOL cap 512 144 R0
SYMATTR InstName C5
SYMATTR Value .1µ
SYMBOL ind -144 240 M270
WINDOW 0 32 56 VTop 2
WINDOW 3 5 56 VBottom 2
SYMATTR InstName L2
SYMATTR Value .6µ
SYMATTR SpiceLine Rser=10m
SYMBOL res -352 336 R0
SYMATTR InstName R1
SYMATTR Value 29.4K
SYMBOL cap -720 240 R0
WINDOW 3 36 33 Left 2
WINDOW 123 24 55 Left 2
SYMATTR InstName C6
SYMATTR Value 47µ
SYMATTR SpiceLine Rser=5m
SYMATTR Value2 x2
SYMBOL res -848 224 R0
SYMATTR InstName Rload1
SYMATTR Value .2
SYMBOL cap -448 240 R0
WINDOW 123 24 77 Left 2
SYMATTR Value 56p
SYMATTR InstName C7
SYMBOL cap -96 144 R0
SYMATTR InstName C8
SYMATTR Value .1µ
SYMBOL cap -160 -256 M90
WINDOW 0 0 32 VBottom 2
WINDOW 3 32 32 VTop 2
SYMATTR InstName C9
SYMATTR Value 2.2µ
SYMBOL res -352 224 R0
SYMATTR InstName R3
SYMATTR Value 29.4K
SYMBOL res 768 224 R0
SYMATTR InstName R4
SYMATTR Value 84.5K
SYMBOL cap -624 240 R0
SYMATTR InstName C1
SYMATTR Value 100µ
SYMATTR SpiceLine Rser=5m
SYMBOL res -160 416 R0
SYMATTR InstName R5
SYMATTR Value 7.68K
SYMBOL cap -160 528 R0
WINDOW 123 24 77 Left 2
SYMATTR Value 1000p
SYMATTR InstName C10
SYMBOL cap -256 432 R0
WINDOW 123 24 77 Left 2
SYMATTR Value 10p
SYMATTR InstName C11
SYMBOL res 80 576 R0
SYMATTR InstName R6
SYMATTR Value 324K
SYMBOL res 560 416 R0
SYMATTR InstName R7
SYMATTR Value 11K
SYMBOL cap 560 528 R0
WINDOW 123 24 77 Left 2
SYMATTR Value 1000p
SYMATTR InstName C12
SYMBOL cap 688 432 R0
WINDOW 123 24 77 Left 2
SYMATTR Value 10p
SYMATTR InstName C13
SYMBOL res 528 16 R90
WINDOW 0 0 56 VBottom 2
WINDOW 3 32 56 VTop 2
SYMATTR InstName R8
SYMATTR Value 100K
SYMBOL res -80 48 R270
WINDOW 0 32 56 VTop 2
WINDOW 3 0 56 VBottom 2
SYMATTR InstName R9
SYMATTR Value 100K
SYMBOL cap -288 -288 R0
WINDOW 3 40 33 Left 2
WINDOW 123 24 55 Left 2
SYMATTR InstName C14
SYMATTR Value 47µ
SYMATTR SpiceLine Rser=5m
SYMATTR Value2 x2
SYMBOL cap -384 -288 R0
WINDOW 3 41 34 Left 2
WINDOW 123 24 57 Left 2
SYMATTR InstName C16
SYMATTR Value 22µ
SYMATTR SpiceLine Rser=5m
SYMATTR Value2 x4
SYMBOL cap -528 240 R0
SYMATTR InstName C15
SYMATTR Value 10µ
SYMATTR SpiceLine Rser=5m
SYMBOL cap 976 240 R0
WINDOW 3 36 33 Left 2
WINDOW 123 24 55 Left 2
SYMATTR InstName C17
SYMATTR Value 47µ
SYMATTR SpiceLine Rser=5m
SYMATTR Value2 x2
SYMBOL cap 1072 240 R0
SYMATTR InstName C18
SYMATTR Value 100µ
SYMATTR SpiceLine Rser=5m
SYMBOL cap 1168 240 R0
SYMATTR InstName C19
SYMATTR Value 10µ
SYMATTR SpiceLine Rser=5m
SYMBOL cap 560 -224 R270
WINDOW 0 32 32 VTop 2
WINDOW 3 0 32 VBottom 2
SYMATTR InstName C2
SYMATTR Value 4.7µ
SYMBOL cap -64 528 R0
SYMATTR InstName C3
SYMATTR Value 4700p
SYMBOL cap 464 528 R0
SYMATTR InstName C20
SYMATTR Value 4700p
TEXT 800 640 Left 2 !.tran 2.55m startup
TEXT -376 696 Left 2 ;Note:\n  If the simulation model is not found please update with the "Sync Release" command from the "Tools" menu.\n  It remains the customer's responsibility to verify proper and reliable operation in the actual application.\n  Component substitution and printed circuit board layout may significantly affect circuit performance or reliability.\n  Contact your local sales representative for assistance. This circuit is distributed to customers only for use with ADI parts.\n  Copyright © 2018 Analog Device Inc. All rights reserved.
TEXT 216 -320 Bottom 2 ;LTC3636 - Dual Channel 6A, 20V Monolithic Synchronous Step-Down Regulator\nDual 1MHz Synchronous Step-Down Regulator\nInput: 3.1V to 20V     Output: 1.2V @ 6A & 2.5V @ 6A, Fsw = 1MHz
TEXT -856 184 Left 2 ;1.2V
TEXT 1256 184 Left 2 ;2.5V
