Version 4
SHEET 1 1104 736
WIRE -96 80 -176 80
WIRE -48 80 -96 80
WIRE 192 80 -48 80
WIRE 240 80 192 80
WIRE 368 80 320 80
WIRE -176 96 -176 80
WIRE -48 96 -48 80
WIRE 192 144 192 80
WIRE -176 192 -176 176
WIRE -48 208 -48 176
WIRE 48 208 -48 208
WIRE 368 208 368 80
WIRE 368 208 336 208
WIRE -96 288 -96 80
WIRE 48 288 -96 288
WIRE 352 288 336 288
WIRE 432 288 416 288
WIRE -96 368 -96 288
WIRE 48 368 -96 368
WIRE 432 368 336 368
WIRE 432 384 432 368
WIRE 192 448 192 432
WIRE 432 464 432 448
FLAG 432 464 0
FLAG 432 288 0
FLAG 192 448 0
FLAG -176 192 0
FLAG -176 80 IN
FLAG 432 368 OUT
SYMBOL PowerProducts\\LTC3490 192 288 R0
SYMATTR InstName U1
SYMBOL ind 224 96 R270
WINDOW 0 32 56 VTop 2
WINDOW 3 5 56 VBottom 2
SYMATTR InstName L1
SYMATTR Value 3.3µ
SYMBOL cap 416 272 R90
WINDOW 0 0 32 VBottom 2
WINDOW 3 32 32 VTop 2
SYMATTR InstName C1
SYMATTR Value 4.7µ
SYMBOL LED 416 384 R0
WINDOW 3 27 67 Left 2
SYMATTR Value LXHL-BW02
SYMATTR InstName D1
SYMATTR Description Diode
SYMATTR Type diode
SYMBOL res -64 80 R0
SYMATTR InstName R1
SYMATTR Value 100K
SYMBOL voltage -176 80 R0
WINDOW 123 0 0 Left 2
WINDOW 39 0 0 Left 2
SYMATTR InstName V1
SYMATTR Value 2
TEXT 632 448 Left 2 !.tran 500u startup
TEXT -416 480 Left 2 ;Note:\n  If the simulation model is not found please update with the "Sync Release" command from the "Tools" menu.\n  It remains the customer's responsibility to verify proper and reliable operation in the actual application.\n  Component substitution and printed circuit board layout may significantly affect circuit performance or reliability.\n  Contact your local sales representative for assistance. This circuit is distributed to customers only for use with ADI parts.\n  Copyright © 2018 Analog Devices. All rights reserved.
TEXT 120 24 Bottom 2 ;LTC3490 - Single Cell 350mA LED Driver\n1W White LED Driver\nInput: 1.8V to 3.5V     Output: 4V Max @ 350mA
