Version 4
SHEET 1 944 1248
WIRE -240 -96 -400 -96
WIRE -224 -96 -240 -96
WIRE 0 -96 -144 -96
WIRE -400 -80 -400 -96
WIRE 0 -80 0 -96
WIRE -240 -48 -240 -96
WIRE -144 -48 -144 -96
WIRE -400 16 -400 -16
WIRE -336 16 -400 16
WIRE 0 16 0 -16
WIRE 0 16 -48 16
WIRE -448 112 -560 112
WIRE -368 112 -448 112
WIRE -336 112 -368 112
WIRE 0 112 -48 112
WIRE 304 112 0 112
WIRE 416 112 304 112
WIRE 528 112 416 112
WIRE -560 128 -560 112
WIRE -448 128 -448 112
WIRE 0 128 0 112
WIRE 416 128 416 112
WIRE 528 128 528 112
WIRE 304 144 304 112
WIRE -368 208 -368 112
WIRE -336 208 -368 208
WIRE 0 208 0 192
WIRE 0 208 -48 208
WIRE -560 224 -560 208
WIRE -448 224 -448 192
WIRE 416 224 416 192
WIRE 528 224 528 208
WIRE 304 288 304 224
WIRE -368 304 -368 208
WIRE -336 304 -368 304
WIRE 0 304 0 208
WIRE 0 304 -48 304
WIRE 16 304 0 304
WIRE 96 304 80 304
WIRE -528 400 -640 400
WIRE -336 400 -528 400
WIRE 304 400 304 368
WIRE 304 400 -48 400
WIRE -640 416 -640 400
WIRE -528 416 -528 400
WIRE 304 416 304 400
WIRE -336 496 -368 496
WIRE 48 496 -48 496
WIRE 96 496 48 496
WIRE 208 496 176 496
WIRE -640 512 -640 496
WIRE -528 512 -528 480
WIRE 48 512 48 496
WIRE 208 512 208 496
WIRE 304 512 304 496
WIRE -240 576 -240 560
WIRE -144 576 -144 560
WIRE 48 592 48 576
WIRE 208 592 208 576
WIRE -368 608 -368 496
WIRE 0 608 0 304
WIRE 0 608 -368 608
FLAG -640 512 0
FLAG -144 576 0
FLAG 208 592 0
FLAG 416 224 0
FLAG 96 304 0
FLAG 304 512 0
FLAG -448 224 0
FLAG 528 112 OUT
FLAG -560 112 IN
FLAG 528 224 0
FLAG -560 224 0
FLAG -528 512 0
FLAG -240 576 0
FLAG 48 592 0
SYMBOL LTC3114-1 -192 256 R0
SYMATTR InstName U1
SYMBOL ind -240 -80 R270
WINDOW 0 32 56 VTop 2
WINDOW 3 5 56 VBottom 2
SYMATTR InstName L1
SYMATTR Value 6.8µ
SYMATTR SpiceLine Ipk=5.94 Rser=0.014018 Rpar=640.56 Cpar=0 mfg="Coilcraft" pn="MSS1048-682"
SYMBOL cap -464 128 R0
SYMATTR InstName C1
SYMATTR Value 10µ
SYMATTR SpiceLine Rser=.01
SYMBOL cap -416 -80 R0
SYMATTR InstName C3
SYMATTR Value 68n
SYMBOL cap -16 -80 R0
SYMATTR InstName C4
SYMATTR Value 68n
SYMBOL cap 16 320 R270
WINDOW 0 32 32 VTop 2
WINDOW 3 0 32 VBottom 2
SYMATTR InstName C5
SYMATTR Value 4.7µ
SYMBOL schottky -16 128 R0
SYMATTR InstName D1
SYMATTR Value PMEG2010AEB
SYMATTR Description Diode
SYMATTR Type diode
SYMBOL res 288 128 R0
SYMATTR InstName R1
SYMATTR Value 49.9
SYMBOL res 288 272 R0
SYMATTR InstName R2
SYMATTR Value 2Meg
SYMBOL res 288 400 R0
SYMATTR InstName R3
SYMATTR Value 499K
SYMBOL cap 192 512 R0
SYMATTR InstName C6
SYMATTR Value 4700p
SYMBOL cap 32 512 R0
SYMATTR InstName C7
SYMATTR Value 10p
SYMBOL res 80 512 R270
WINDOW 0 32 56 VTop 2
WINDOW 3 0 56 VBottom 2
SYMATTR InstName R4
SYMATTR Value 27.4K
SYMBOL cap 400 128 R0
WINDOW 3 37 32 Left 2
WINDOW 123 22 57 Left 2
SYMATTR Value 22µ
SYMATTR Value2 x2
SYMATTR InstName C8
SYMATTR SpiceLine Rser=.005
SYMBOL cap -544 416 R0
SYMATTR InstName C11
SYMATTR Value 10n
SYMBOL res -656 400 R0
SYMATTR InstName R5
SYMATTR Value 21K
SYMBOL res 512 112 R0
SYMATTR InstName Rload
SYMATTR Value 5
SYMBOL voltage -560 112 R0
WINDOW 123 0 0 Left 2
WINDOW 39 0 0 Left 2
SYMATTR InstName V1
SYMATTR Value 12
TEXT 392 568 Left 2 !.tran 3m startup
TEXT -64 -144 Bottom 2 ;LTC3114-1 - 40V, 1A Synchronous Buck-Boost DC/DC Converter with Programmable Output Current \nWide Vin Range Regulator with Bootstrapped LDO\nInput: 2.7V to 40V     Output: 5V @ 1A for Vin > Vout
TEXT -696 608 Left 2 ;Notes: \n  If the simulation model is not found please update with the "Sync Release" command from the "Tools" menu.\n  It remains the customer's responsibility to verify proper and reliable operation in the actual application.\n  Component substitution and printed circuit board layout may significantly affect circuit performance or reliability.\n  Contact your local sales representative for assistance. This circuit is distributed to customers only for use with LTC parts.\n  Copyright © 2015, 2018 Analog Devices Inc.  All rights reserved.
TEXT 88 104 Bottom 2 ;D1 Improves \nEfficiency at High Vin
