Version 4
SHEET 1 2524 1384
WIRE 16 -16 -80 -16
WIRE 112 -16 16 -16
WIRE 176 -16 112 -16
WIRE 1056 -16 176 -16
WIRE -80 0 -80 -16
WIRE 16 0 16 -16
WIRE 112 0 112 -16
WIRE 176 32 176 -16
WIRE 192 32 176 32
WIRE 304 32 272 32
WIRE 576 32 304 32
WIRE 304 64 304 32
WIRE 672 64 368 64
WIRE 896 64 672 64
WIRE 912 64 896 64
WIRE 992 64 976 64
WIRE -80 96 -80 80
WIRE 16 96 16 64
WIRE 112 96 112 64
WIRE 576 96 576 32
WIRE 672 96 672 64
WIRE 304 144 304 128
WIRE 496 160 480 160
WIRE 1376 160 848 160
WIRE 896 176 896 64
WIRE 368 256 368 64
WIRE 400 256 368 256
WIRE 496 256 480 256
WIRE 896 256 896 240
WIRE 896 256 848 256
WIRE 896 272 896 256
WIRE 1056 272 1056 -16
WIRE 496 352 480 352
WIRE 1008 352 848 352
WIRE 368 448 368 256
WIRE 496 448 368 448
WIRE 896 448 896 336
WIRE 896 448 848 448
WIRE 1056 448 1056 368
WIRE 1056 448 896 448
WIRE 1232 448 1056 448
WIRE 1264 448 1232 448
WIRE 1376 448 1376 160
WIRE 1376 448 1344 448
WIRE 1520 448 1376 448
WIRE 1616 448 1520 448
WIRE 1056 464 1056 448
WIRE 1520 464 1520 448
WIRE 1616 464 1616 448
WIRE 400 544 384 544
WIRE 496 544 480 544
WIRE 1008 544 848 544
WIRE 1520 544 1520 528
WIRE 1520 544 1488 544
WIRE 1520 560 1520 544
WIRE 1616 560 1616 544
WIRE 1056 576 1056 560
WIRE 320 640 304 640
WIRE 400 640 384 640
WIRE 496 640 480 640
WIRE 896 640 848 640
WIRE 992 640 896 640
WIRE 1232 640 1232 448
WIRE 1232 640 1072 640
WIRE 896 656 896 640
WIRE 416 736 400 736
WIRE 496 736 480 736
WIRE 896 736 896 720
WIRE 896 736 848 736
WIRE 1376 736 1376 448
WIRE 1376 736 896 736
WIRE 496 832 480 832
WIRE 864 832 848 832
WIRE 1376 832 1376 736
WIRE 608 928 608 896
WIRE 1376 928 1376 912
WIRE 1376 928 608 928
WIRE 1376 944 1376 928
WIRE 736 1040 736 896
WIRE 1376 1040 1376 1024
WIRE 1376 1040 736 1040
WIRE 1488 1040 1488 544
WIRE 1488 1040 1376 1040
FLAG 1056 576 0
FLAG -80 96 0
FLAG -80 -16 IN
FLAG 384 544 0
FLAG 480 832 0
FLAG 864 832 0
FLAG 1520 560 0
FLAG 400 736 0
FLAG 304 640 0
FLAG 16 96 0
FLAG 304 144 0
FLAG 1616 448 OUT
FLAG 992 64 0
FLAG 480 352 0
FLAG 1616 560 0
FLAG 112 96 0
SYMBOL schottky 880 176 R0
SYMATTR InstName D1
SYMATTR Value CMDSH2-3
SYMBOL nmos 1008 272 R0
SYMATTR InstName Q1
SYMATTR Value Si4816BDY_1
SYMBOL ind 1248 464 R270
WINDOW 0 32 56 VTop 2
WINDOW 3 5 56 VBottom 2
SYMATTR InstName L1
SYMATTR Value 1µ
SYMATTR SpiceLine Ipk=9.5 Rser=0.0076 Rpar=0 Cpar=0 mfg="Vishay" pn="IHLP2525CZ11-1R0"
SYMBOL VOLTAGE -80 -16 R0
WINDOW 123 0 0 Left 2
WINDOW 39 0 0 Left 2
SYMATTR InstName V1
SYMATTR Value 12
SYMBOL cap 880 272 R0
WINDOW 0 28 17 Left 2
WINDOW 3 26 48 Left 2
SYMATTR InstName C1
SYMATTR Value .1µ
SYMBOL PowerProducts\\LTC3833 672 496 R0
SYMATTR InstName U1
SYMBOL res 496 528 R90
WINDOW 0 0 56 VBottom 2
WINDOW 3 32 56 VTop 2
SYMATTR InstName R1
SYMATTR Value 33.2K
SYMBOL cap 880 656 R0
SYMATTR InstName C2
SYMATTR Value .1µ
SYMBOL res 1088 624 R90
WINDOW 0 0 56 VBottom 2
WINDOW 3 32 56 VTop 2
SYMATTR InstName R2
SYMATTR Value 1.1K
SYMBOL cap 1504 464 R0
SYMATTR InstName C3
SYMATTR Value 72.4µ
SYMATTR SpiceLine Rser=1m
SYMBOL res 1360 928 R0
SYMATTR InstName R3
SYMATTR Value 10.0K
SYMBOL res 1360 816 R0
SYMATTR InstName R4
SYMATTR Value 31.6K
SYMBOL cap 480 720 R90
WINDOW 0 0 32 VBottom 2
WINDOW 3 32 32 VTop 2
SYMATTR InstName C4
SYMATTR Value 1n
SYMBOL res 496 624 R90
WINDOW 0 0 56 VBottom 2
WINDOW 3 32 56 VTop 2
SYMATTR InstName R5
SYMATTR Value 20K
SYMBOL cap 384 624 R90
WINDOW 0 0 32 VBottom 2
WINDOW 3 32 32 VTop 2
SYMATTR InstName C5
SYMATTR Value 220p
SYMBOL cap 0 0 R0
SYMATTR InstName C6
SYMATTR Value 10µ
SYMATTR SpiceLine Rser=4m
SYMBOL cap 288 64 R0
SYMATTR InstName C7
SYMATTR Value .1µ
SYMBOL res 288 16 R90
WINDOW 0 0 56 VBottom 2
WINDOW 3 32 56 VTop 2
SYMATTR InstName R6
SYMATTR Value 2.2
SYMBOL cap 912 80 R270
WINDOW 0 32 32 VTop 2
WINDOW 3 0 32 VBottom 2
SYMATTR InstName C8
SYMATTR Value 4.7µ
SYMBOL res 384 272 R270
WINDOW 0 32 56 VTop 2
WINDOW 3 0 56 VBottom 2
SYMATTR InstName R7
SYMATTR Value 100K
SYMBOL polcap 96 0 R0
WINDOW 3 24 56 Left 2
SYMATTR Value 47µ
SYMATTR InstName C9
SYMATTR Description Capacitor
SYMATTR Type cap
SYMATTR SpiceLine V=35 Irms=1.87845 Rser=0.07 Lser=0 mfg="KEMET" pn="T521X476M035ATE070" type="Tantalum"
SYMBOL nmos 1008 464 R0
SYMATTR InstName Q2
SYMATTR Value Si4816BDY_2
SYMBOL res 1600 448 R0
SYMATTR InstName Rload
SYMATTR Value .5
TEXT 1512 1024 Left 2 !.tran 1m startup
TEXT 808 -40 Bottom 2 ;LTC3833 - Fast Accurate Step-Down DC/DC Controller with Differential Output Sensing\nArea Compact 2.5V, 5A, 1.2MHz Step-Down Converter\nInput: 6V - 28V     Output: 2.5V @ 5A, Fswitch = 1.2MHz
TEXT 136 1040 Left 2 ;Notes:\n  If the simulation model is not found please update with the "Sync Release" command from the "Tools" menu.\n  It remains the customer's responsibility to verify proper and reliable operation in the actual application.\n  Component substitution and printed circuit board layout may significantly affect circuit performance or reliability.\n  Small SS capacitor used to reduce simulation time. Refer to the data sheet for selecting the soft-start capacitor value.\n  Contact your local sales representative for assistance. This circuit is distributed to customers only for use with ADI parts.\n  Copyright © 2020 Analog Devices Inc. All rights reserved.
TEXT 1496 480 Right 2 ;Cnom\n100uF
