Version 4
SHEET 1 1612 1060
WIRE 144 -128 -32 -128
WIRE 160 -128 144 -128
WIRE 400 -128 240 -128
WIRE -32 -96 -32 -128
WIRE 400 -96 400 -128
WIRE 144 -80 144 -128
WIRE 240 -80 240 -128
WIRE -32 0 -32 -32
WIRE 48 0 -32 0
WIRE 400 0 400 -32
WIRE 400 0 336 0
WIRE -80 80 -176 80
WIRE 0 80 -80 80
WIRE 48 80 0 80
WIRE 400 80 336 80
WIRE 496 80 400 80
WIRE 576 80 496 80
WIRE -176 96 -176 80
WIRE -80 96 -80 80
WIRE 400 96 400 80
WIRE 496 96 496 80
WIRE 576 96 576 80
WIRE 48 160 32 160
WIRE 352 160 336 160
WIRE -176 192 -176 176
WIRE -80 192 -80 160
WIRE 496 192 496 160
WIRE 576 192 576 176
WIRE 0 240 0 80
WIRE 48 240 0 240
WIRE 352 240 352 160
WIRE 352 240 336 240
WIRE -48 320 -64 320
WIRE 32 320 16 320
WIRE 48 320 32 320
WIRE 368 320 336 320
WIRE 32 400 32 320
WIRE 48 400 32 400
WIRE 400 400 400 176
WIRE 400 400 336 400
WIRE 192 496 192 480
WIRE 32 528 32 400
WIRE 352 528 352 240
WIRE 352 528 32 528
FLAG -176 192 0
FLAG -64 320 0
FLAG 496 192 0
FLAG 576 192 0
FLAG 576 80 OUT
FLAG -176 80 IN
FLAG 192 496 0
FLAG 368 320 0
FLAG -80 192 0
FLAG 32 160 0
SYMBOL ind 144 -112 R270
WINDOW 0 32 56 VTop 2
WINDOW 3 5 56 VBottom 2
SYMATTR InstName L1
SYMATTR Value 10µ
SYMATTR SpiceLine Rser=301m
SYMBOL cap -48 -96 R0
SYMATTR InstName C1
SYMATTR Value 22n
SYMBOL cap 384 -96 R0
SYMATTR InstName C2
SYMATTR Value 22n
SYMBOL voltage -176 80 R0
WINDOW 123 0 0 Left 2
WINDOW 39 0 0 Left 2
SYMATTR InstName V1
SYMATTR Value 8
SYMBOL cap 16 304 R90
WINDOW 0 0 32 VBottom 2
WINDOW 3 32 32 VTop 2
SYMATTR InstName C3
SYMATTR Value 2.2µ
SYMBOL cap 480 96 R0
WINDOW 3 23 57 Left 2
SYMATTR Value 10µ
SYMATTR SpiceLine Rser=7m
SYMATTR InstName C4
SYMBOL res 384 80 R0
SYMATTR InstName R1
SYMATTR Value 2Meg
SYMBOL cap -96 96 R0
SYMATTR InstName C5
SYMATTR Value 22µ
SYMATTR SpiceLine Rser=5m
SYMBOL PowerProducts\\LTC3129-1 192 208 R0
SYMATTR InstName U1
SYMBOL res 560 80 R0
SYMATTR InstName Rload
SYMATTR Value 25
TEXT 464 504 Left 2 !.tran 3.5m startup
TEXT -408 528 Left 2 ;Notes: \n  If the simulation model is not found please update with the "Sync Release" command from the "Tools" menu.\n  It remains the customer's responsibility to verify proper and reliable operation in the actual application.\n  Component substitution and printed circuit board layout may significantly affect circuit performance or reliability.\n  Contact your local sales representative for assistance. This circuit is distributed to customers only for use with LTC parts.\n  Copyright © 2019 Analog Devices Inc.  All rights reserved.
TEXT 200 -184 Bottom 2 ;LTC3129-1 - 15V, 200mA Synchronous Buck-Boost DC/DC Converter with 1.3uA Quiescent Current\nµPower, Synchronous Buck-Boost Converter\nInput: 2.4V to 15V     Output: 5V @ 200mA for Vin > 5V
