Version 4
SHEET 1 2956 820
WIRE 144 -112 -16 -112
WIRE 160 -112 144 -112
WIRE 384 -112 240 -112
WIRE -16 -80 -16 -112
WIRE 384 -80 384 -112
WIRE 144 -48 144 -112
WIRE 240 -48 240 -112
WIRE -16 16 -16 -16
WIRE 48 16 -16 16
WIRE 384 16 384 -16
WIRE 384 16 336 16
WIRE 464 16 416 16
WIRE 592 16 464 16
WIRE 704 16 592 16
WIRE 816 16 704 16
WIRE 912 16 816 16
WIRE 464 32 464 16
WIRE 704 32 704 16
WIRE 816 32 816 16
WIRE 912 32 912 16
WIRE -144 112 -256 112
WIRE -64 112 -144 112
WIRE 48 112 -64 112
WIRE 416 112 416 16
WIRE 416 112 336 112
WIRE 592 112 592 16
WIRE -256 128 -256 112
WIRE -144 128 -144 112
WIRE 464 128 464 112
WIRE 816 128 816 96
WIRE 912 128 912 112
WIRE 48 208 32 208
WIRE 464 208 464 192
WIRE 464 208 336 208
WIRE 592 208 592 192
WIRE 592 208 464 208
WIRE -256 224 -256 208
WIRE -144 224 -144 192
WIRE 592 224 592 208
WIRE -64 304 -64 112
WIRE -48 304 -64 304
WIRE 48 304 32 304
WIRE 368 304 336 304
WIRE 592 320 592 304
WIRE 48 400 0 400
WIRE 368 400 368 304
WIRE 368 400 336 400
WIRE 368 416 368 400
WIRE 192 480 192 464
WIRE 368 496 368 480
WIRE 0 528 0 400
WIRE 704 528 704 112
WIRE 704 528 0 528
FLAG -144 224 0
FLAG -256 224 0
FLAG 192 480 0
FLAG 816 128 0
FLAG 912 128 0
FLAG 592 320 0
FLAG 912 16 OUT
FLAG -256 112 IN
FLAG 368 496 0
FLAG 32 208 0
SYMBOL LTC3129 192 208 R0
SYMATTR InstName U1
SYMBOL res 576 96 R0
SYMATTR Value 2Meg
SYMATTR InstName R1
SYMATTR SpiceLine tol=1
SYMBOL res 576 208 R0
SYMATTR InstName R2
SYMATTR Value 619K
SYMBOL res 448 16 R0
SYMATTR InstName R3
SYMATTR Value 2.21K
SYMBOL res 688 16 R0
SYMATTR InstName R4
SYMATTR Value 2Meg
SYMBOL cap -160 128 R0
SYMATTR InstName C1
SYMATTR Value 22µ
SYMATTR SpiceLine V=25 Rser=.005
SYMBOL cap 800 32 R0
SYMATTR InstName C2
SYMATTR Value 22µ
SYMATTR SpiceLine V=10 Irms=8 Rser=.005
SYMBOL cap -32 -80 R0
SYMATTR InstName C3
SYMATTR Value 22n
SYMATTR SpiceLine V=50
SYMBOL cap 368 -80 R0
SYMATTR InstName C4
SYMATTR Value 22n
SYMATTR SpiceLine V=50
SYMBOL cap 448 128 R0
SYMATTR InstName C5
SYMATTR Value 33p
SYMBOL voltage -256 112 R0
WINDOW 123 24 138 Left 2
WINDOW 39 24 117 Left 2
SYMATTR Value 12V
SYMATTR InstName V1
SYMBOL ind 144 -96 R270
WINDOW 0 32 56 VTop 2
WINDOW 3 5 56 VBottom 2
SYMATTR InstName L1
SYMATTR Value 10µ
SYMATTR SpiceLine Ipk=.59 Rser=.301
SYMBOL cap 352 416 R0
SYMATTR InstName C6
SYMATTR Value 2.2µ
SYMATTR SpiceLine V=10 Rser=.005
SYMBOL res -64 320 R270
WINDOW 0 32 56 VTop 2
WINDOW 3 0 56 VBottom 2
SYMATTR InstName R5
SYMATTR Value 2Meg
SYMBOL res 896 16 R0
SYMATTR InstName Rload
SYMATTR Value 25
TEXT 760 512 Left 2 !.tran 3.5m
TEXT -344 520 Left 2 ;Notes: \n  If the simulation model is not found please update with the "Sync Release" command from the "Tools" menu.\n  It remains the customer's responsibility to verify proper and reliable operation in the actual application.\n  Component substitution and printed circuit board layout may significantly affect circuit performance or reliability.\n  Contact your local sales representative for assistance. This circuit is distributed to customers only for use with LTC parts.\n  Copyright © 2017, © 2019 Analog Devices Inc.  All rights reserved.
TEXT 304 -152 Bottom 2 ;LTC3129 - 15V, 200mA Synchronous Buck-Boost DC/DC Converter with 1.3µA Quiescent Current\nµPower, Synchronous Buck-Boost Converter\nInput: 2.42V to 15V     Output: 5V @ 200mA for Vin > Vout
