Version 4
SHEET 1 984 1244
WIRE 352 -144 64 -144
WIRE 512 -144 352 -144
WIRE 512 -128 512 -144
WIRE 64 -112 64 -144
WIRE 352 -112 352 -144
WIRE -512 -64 -1008 -64
WIRE -384 -64 -432 -64
WIRE -320 -64 -384 -64
WIRE -224 -64 -240 -64
WIRE -48 -64 -160 -64
WIRE -1008 -48 -1008 -64
WIRE -384 -48 -384 -64
WIRE 512 -32 512 -48
WIRE -128 16 -144 16
WIRE -48 16 -64 16
WIRE -1008 48 -1008 32
WIRE -384 48 -384 32
WIRE -512 96 -1008 96
WIRE -384 96 -432 96
WIRE -320 96 -384 96
WIRE -224 96 -240 96
WIRE -48 96 -160 96
WIRE 464 96 448 96
WIRE 560 96 544 96
WIRE 672 96 624 96
WIRE -1008 112 -1008 96
WIRE -384 112 -384 96
WIRE 672 112 672 96
WIRE -128 176 -144 176
WIRE -48 176 -64 176
WIRE -1008 208 -1008 192
WIRE -384 208 -384 192
WIRE 672 208 672 192
WIRE -512 256 -1008 256
WIRE -384 256 -432 256
WIRE -320 256 -384 256
WIRE -224 256 -240 256
WIRE -48 256 -160 256
WIRE -1008 272 -1008 256
WIRE -384 272 -384 256
WIRE -128 336 -144 336
WIRE -48 336 -64 336
WIRE 496 336 448 336
WIRE 496 352 496 336
WIRE -1008 368 -1008 352
WIRE -384 368 -384 352
WIRE -512 416 -1008 416
WIRE -384 416 -432 416
WIRE -320 416 -384 416
WIRE -224 416 -240 416
WIRE -48 416 -160 416
WIRE -1008 432 -1008 416
WIRE -384 432 -384 416
WIRE 496 448 496 432
WIRE -128 496 -144 496
WIRE -48 496 -64 496
WIRE -384 528 -384 512
WIRE -1008 544 -1008 512
WIRE 64 576 64 560
WIRE 352 576 352 560
WIRE 256 624 256 560
WIRE -1008 640 -1008 624
WIRE 160 704 160 560
WIRE 256 736 256 704
WIRE 160 800 160 784
FLAG -144 496 0
FLAG -144 336 0
FLAG -144 176 0
FLAG -144 16 0
FLAG 496 448 0
FLAG 672 208 0
FLAG 64 576 0
FLAG 160 800 0
FLAG 256 736 0
FLAG -384 48 0
FLAG -384 208 0
FLAG -384 368 0
FLAG -384 528 0
FLAG -1008 48 0
FLAG -1008 208 0
FLAG -1008 368 0
FLAG 672 96 OUT
FLAG 512 -32 0
FLAG -384 -64 IN1
FLAG -384 96 IN2
FLAG -384 256 IN3
FLAG -384 416 IN4
FLAG 352 576 0
FLAG -1008 640 0
SYMBOL Opamps\\LTC6561 208 192 R0
SYMATTR InstName U1
SYMBOL cap -64 0 R90
WINDOW 0 0 32 VBottom 2
WINDOW 3 32 32 VTop 2
SYMATTR InstName C1
SYMATTR Value 1000p
SYMBOL cap -64 160 R90
WINDOW 0 0 32 VBottom 2
WINDOW 3 32 32 VTop 2
SYMATTR InstName C2
SYMATTR Value 1000p
SYMBOL cap -64 320 R90
WINDOW 0 0 32 VBottom 2
WINDOW 3 32 32 VTop 2
SYMATTR InstName C3
SYMATTR Value 1000p
SYMBOL cap -64 480 R90
WINDOW 0 0 32 VBottom 2
WINDOW 3 32 32 VTop 2
SYMATTR InstName C4
SYMATTR Value 1000p
SYMBOL res 480 336 R0
SYMATTR InstName R1
SYMATTR Value 1K
SYMBOL res 560 80 R90
WINDOW 0 0 56 VBottom 2
WINDOW 3 32 56 VTop 2
SYMATTR InstName R2
SYMATTR Value 47.5
SYMBOL VOLTAGE 160 688 R0
WINDOW 123 24 138 Left 2
WINDOW 39 24 117 Left 2
SYMATTR InstName V1
SYMATTR Value PWL(20u 0 +.5n 5 40u 5)
SYMBOL VOLTAGE 256 608 R0
WINDOW 123 0 0 Left 2
WINDOW 39 0 0 Left 2
SYMATTR InstName V2
SYMATTR Value PWL(10u 0 +.5n 5 20u 5 +.5n 0 30u 0 +.5n 5)
SYMBOL cap -160 -80 R90
WINDOW 0 0 32 VBottom 2
WINDOW 3 32 32 VTop 2
SYMATTR InstName C5
SYMATTR Value 100p
SYMBOL cap -160 80 R90
WINDOW 0 0 32 VBottom 2
WINDOW 3 32 32 VTop 2
SYMATTR InstName C6
SYMATTR Value 100p
SYMBOL cap -160 240 R90
WINDOW 0 0 32 VBottom 2
WINDOW 3 32 32 VTop 2
SYMATTR InstName C7
SYMATTR Value 100p
SYMBOL cap -160 400 R90
WINDOW 0 0 32 VBottom 2
WINDOW 3 32 32 VTop 2
SYMATTR InstName C8
SYMATTR Value 100p
SYMBOL res -224 -80 R90
WINDOW 0 0 56 VBottom 2
WINDOW 3 32 56 VTop 2
SYMATTR InstName R3
SYMATTR Value 2k
SYMBOL res -224 80 R90
WINDOW 0 0 56 VBottom 2
WINDOW 3 32 56 VTop 2
SYMATTR InstName R4
SYMATTR Value 2k
SYMBOL res -224 240 R90
WINDOW 0 0 56 VBottom 2
WINDOW 3 32 56 VTop 2
SYMATTR InstName R5
SYMATTR Value 2k
SYMBOL res -224 400 R90
WINDOW 0 0 56 VBottom 2
WINDOW 3 32 56 VTop 2
SYMATTR InstName R6
SYMATTR Value 2k
SYMBOL res -400 -64 R0
SYMATTR InstName R7
SYMATTR Value 50
SYMBOL res -400 96 R0
SYMATTR InstName R8
SYMATTR Value 50
SYMBOL res -400 256 R0
SYMATTR InstName R9
SYMATTR Value 50
SYMBOL res -400 416 R0
SYMATTR InstName R10
SYMATTR Value 50
SYMBOL res -416 -80 R90
WINDOW 0 0 56 VBottom 2
WINDOW 3 32 56 VTop 2
SYMATTR InstName R11
SYMATTR Value 50
SYMBOL res -416 80 R90
WINDOW 0 0 56 VBottom 2
WINDOW 3 32 56 VTop 2
SYMATTR InstName R12
SYMATTR Value 50
SYMBOL res -416 240 R90
WINDOW 0 0 56 VBottom 2
WINDOW 3 32 56 VTop 2
SYMATTR InstName R13
SYMATTR Value 50
SYMBOL res -416 400 R90
WINDOW 0 0 56 VBottom 2
WINDOW 3 32 56 VTop 2
SYMATTR InstName R14
SYMATTR Value 50
SYMBOL VOLTAGE -1008 -64 R0
WINDOW 123 0 0 Left 2
WINDOW 39 0 0 Left 2
SYMATTR InstName V3
SYMATTR Value PWL(2u 30m +.5n 0 +4n 0 +.5n 30m)
SYMBOL VOLTAGE -1008 96 R0
WINDOW 123 0 0 Left 2
WINDOW 39 0 0 Left 2
SYMATTR InstName V4
SYMATTR Value PWL(12u 30m +.5n 0 +4n 0 +.5n 30m)
SYMBOL VOLTAGE -1008 256 R0
WINDOW 123 0 0 Left 2
WINDOW 39 0 0 Left 2
SYMATTR InstName V5
SYMATTR Value PWL(22u 30m +.5n 0 +4n 0 +.5n 30m)
SYMBOL VOLTAGE -1008 416 R0
WINDOW 123 0 0 Left 2
WINDOW 39 0 0 Left 2
SYMATTR InstName V6
SYMATTR Value PWL(32u 30m +.5n 0 +4n 0 +.5n 30m)
SYMBOL VOLTAGE 512 -144 R0
WINDOW 123 0 0 Left 2
WINDOW 39 0 0 Left 2
SYMATTR InstName V7
SYMATTR Value 5
SYMBOL cap 624 80 R90
WINDOW 0 0 32 VBottom 2
WINDOW 3 32 32 VTop 2
SYMATTR InstName C9
SYMATTR Value 1000p
SYMBOL VOLTAGE -1008 528 R0
WINDOW 123 0 0 Left 2
WINDOW 39 0 0 Left 2
SYMATTR InstName V8
SYMATTR Value PULSE(0 -30m 50u 500p 500p 4n 5u)
SYMBOL res 656 96 R0
SYMATTR InstName Rload
SYMATTR Value 50
TEXT -824 -128 Top 2 ;Voltage Pulse Generator
TEXT 520 624 Top 2 ;Digital Pattern Generator
TEXT 496 544 Left 2 !.tran 100u
TEXT -680 824 Left 2 ;Note:\n  If the simulation model is not found please update with the "Sync Release" command from the "Tools" menu.\n  It remains the customer's responsibility to verify proper and reliable operation in the actual application.\n  Component substitution and printed circuit board layout may significantly affect circuit performance or reliability\n  Contact your local sales representative for assistance. This circuit is distributed to customers only for use with LTC parts\n  Copyright © 2019 Analog Devices Inc. All rights reserved.
TEXT -160 -160 Bottom 2 ;LTC6561 - Four-Channel Multiplexed Transimpedance Amplifier with Output Multiplexing
RECTANGLE Normal -544 688 -1072 -144 2
RECTANGLE Normal 784 832 96 608 2
