Version 4
SHEET 1 1820 1384
WIRE 704 160 608 160
WIRE 784 160 704 160
WIRE 1088 160 1008 160
WIRE 1168 160 1088 160
WIRE 608 176 608 160
WIRE 704 176 704 160
WIRE 1088 176 1088 160
WIRE 1168 176 1168 160
WIRE 896 256 896 224
WIRE 1088 256 1088 240
WIRE 608 272 608 256
WIRE 704 272 704 240
WIRE 1328 272 1328 256
WIRE 1168 288 1168 256
WIRE 1296 288 1168 288
WIRE 1456 304 1360 304
WIRE 1520 304 1456 304
WIRE 1264 320 1040 320
WIRE 1296 320 1264 320
WIRE 1168 352 1168 288
WIRE 1168 352 1072 352
WIRE 1328 352 1328 336
WIRE 1168 368 1168 352
WIRE 1072 384 1072 352
WIRE 1328 448 1328 432
WIRE 1072 464 1072 448
WIRE 1168 464 1168 448
WIRE 1168 464 1072 464
WIRE 1264 464 1264 320
WIRE 1296 464 1264 464
WIRE 1456 480 1360 480
WIRE 1520 480 1456 480
WIRE 1168 496 1168 464
WIRE 1264 496 1168 496
WIRE 1296 496 1264 496
WIRE 16 528 -384 528
WIRE 384 528 16 528
WIRE 560 528 384 528
WIRE 1168 528 1168 496
WIRE 1168 528 1072 528
WIRE 1328 528 1328 512
WIRE -384 544 -384 528
WIRE 560 544 560 528
WIRE 1168 544 1168 528
WIRE 1072 560 1072 528
WIRE 16 576 16 528
WIRE 160 576 16 576
WIRE 400 576 240 576
WIRE 16 592 16 576
WIRE 1328 624 1328 608
WIRE -384 640 -384 624
WIRE 1072 640 1072 624
WIRE 1168 640 1168 624
WIRE 1168 640 1072 640
WIRE 1264 640 1264 496
WIRE 1296 640 1264 640
WIRE 1472 656 1360 656
WIRE 1520 656 1472 656
WIRE 160 672 16 672
WIRE 400 672 240 672
WIRE 800 672 720 672
WIRE 848 672 800 672
WIRE 960 672 848 672
WIRE 1264 672 960 672
WIRE 1296 672 1264 672
WIRE 16 688 16 672
WIRE 848 688 848 672
WIRE 960 688 960 672
WIRE 384 704 384 528
WIRE 400 704 384 704
WIRE 1168 704 1168 640
WIRE 1248 704 1168 704
WIRE 1328 704 1328 688
WIRE 768 736 720 736
WIRE 1168 736 1168 704
WIRE 1168 736 1072 736
WIRE 1168 752 1168 736
WIRE 1072 768 1072 736
WIRE 16 784 16 768
WIRE 848 784 848 768
WIRE 960 784 960 752
WIRE 1328 784 1328 768
WIRE 768 800 720 800
WIRE 1264 800 1264 672
WIRE 1296 800 1264 800
WIRE 1472 816 1360 816
WIRE 1520 816 1472 816
WIRE 400 832 368 832
WIRE 1248 832 1248 704
WIRE 1296 832 1248 832
WIRE 1072 848 1072 832
WIRE 1168 848 1168 832
WIRE 1168 848 1072 848
WIRE 1168 864 1168 848
WIRE 1328 864 1328 848
WIRE 560 880 560 864
WIRE 256 928 240 928
WIRE 368 928 368 832
WIRE 368 928 336 928
WIRE 416 928 368 928
WIRE 768 928 768 800
WIRE 768 928 496 928
WIRE 816 928 768 928
WIRE 960 928 816 928
WIRE 1040 928 1040 320
WIRE 1040 928 960 928
WIRE 960 944 960 928
WIRE 960 1024 960 1008
FLAG 608 272 0
FLAG -384 640 0
FLAG 896 256 0
FLAG 1328 864 0
FLAG 1328 352 0
FLAG 1328 528 0
FLAG 1328 704 0
FLAG 560 880 0
FLAG 1328 256 +5
FLAG 1328 432 +5
FLAG 1328 608 +5
FLAG 1328 768 +5
FLAG 608 160 +5
FLAG 768 736 +5
FLAG 240 928 0
FLAG 16 784 0
FLAG -384 528 LED
FLAG 848 784 0
FLAG 960 1024 0
FLAG 1168 864 0
FLAG 704 272 0
FLAG 1088 256 0
FLAG 1168 288 3.75V
FLAG 1168 496 3.0V
FLAG 1168 704 1.25V
FLAG 816 928 OUTV
FLAG 800 672 OUTI
FLAG 1456 304 OVER_15V
FLAG 1456 480 UNDER_12V
FLAG 1472 656 OVER_6A
FLAG 1472 816 UNDER_2.5A
FLAG 960 784 0
SYMBOL Opamps\\LTC6115 560 704 R0
SYMATTR InstName U1
SYMBOL References\\LT6654-4.096 896 160 R0
SYMATTR InstName U2
SYMBOL voltage 608 160 R0
WINDOW 123 0 0 Left 0
WINDOW 39 0 0 Left 0
SYMATTR InstName V1
SYMATTR Value 5
SYMBOL cap 688 176 R0
SYMATTR InstName C1
SYMATTR Value .1µ
SYMBOL cap 1072 176 R0
SYMATTR InstName C2
SYMATTR Value 1µ
SYMBOL cap 1056 384 R0
SYMATTR InstName C3
SYMATTR Value 1n
SYMBOL cap 1056 560 R0
SYMATTR InstName C4
SYMATTR Value 1n
SYMBOL cap 1056 768 R0
SYMATTR InstName C5
SYMATTR Value 1n
SYMBOL cap 944 688 R0
SYMATTR InstName C6
SYMATTR Value 10p
SYMBOL cap 944 944 R0
SYMATTR InstName C7
SYMATTR Value 10p
SYMBOL res 1152 160 R0
SYMATTR InstName R1
SYMATTR Value 38.4K
SYMBOL res 1152 352 R0
SYMATTR InstName R2
SYMATTR Value 76.8K
SYMBOL res 1152 528 R0
SYMATTR InstName R3
SYMATTR Value 174K
SYMBOL res 1152 736 R0
SYMATTR InstName R4
SYMATTR Value 124K
SYMBOL res 256 560 R90
WINDOW 0 0 56 VBottom 2
WINDOW 3 32 56 VTop 2
SYMATTR InstName R5
SYMATTR Value 499
SYMBOL res 256 656 R90
WINDOW 0 0 56 VBottom 2
WINDOW 3 32 56 VTop 2
SYMATTR InstName R6
SYMATTR Value 499
SYMBOL res 832 672 R0
SYMATTR InstName R7
SYMATTR Value 10K
SYMBOL res 400 944 R270
WINDOW 0 32 56 VTop 2
WINDOW 3 0 56 VBottom 2
SYMATTR InstName R8
SYMATTR Value 909K
SYMBOL res 352 912 R90
WINDOW 0 0 56 VBottom 2
WINDOW 3 32 56 VTop 2
SYMATTR InstName R9
SYMATTR Value 100K
SYMBOL res 0 576 R0
SYMATTR InstName R10
SYMATTR Value 25m
SYMATTR SpiceLine tol=1 pwr=2 mfg="Susumu" pn="KRL6432T4"
SYMBOL voltage -384 528 R0
WINDOW 123 0 0 Left 2
WINDOW 39 0 0 Left 2
SYMATTR InstName V2
SYMATTR Value PWL(0 5 .1m 5 .45m 15.5 .8m 5)
SYMBOL current 16 688 R0
WINDOW 123 24 122 Left 2
WINDOW 39 24 101 Left 2
SYMATTR InstName I1
SYMATTR Value PWL(0 0 .1m 0 .45m 6.5 .8m 0)
SYMBOL Comparators\\LT1716 1328 304 R0
SYMATTR InstName U3
SYMBOL Comparators\\LT1716 1328 480 R0
SYMATTR InstName U4
SYMBOL Comparators\\LT1716 1328 656 R0
SYMATTR InstName U5
SYMBOL Comparators\\LT1716 1328 816 R0
SYMATTR InstName U6
TEXT 136 240 Bottom 2 ;LTC6115 - High Voltage High Side Current and Voltage Sense\nLT1716 - 44V, Over-The-Top, Micropower, Precision Rail-to-Rail Comparator\nLT6654 - Precision Wide Supply High Output Drive Low Noise Reference\nLED Headlamp Supply Monitor\nInput: 12.8V, 5A (65W) LED Headlamp    Output: active-high (0-5V) signals
TEXT 0 1000 Left 2 ;Note:\n  No LTspice model for ADCMP393 available; LT1716 used as substitute.\n  If the simulation model is not found please update with the "Sync Release" command from the "Tools" menu.\n  It remains the customer's responsibility to verify proper and reliable operation in the actual application.\n  Component substitution and printed circuit board layout may significantly affect circuit performance or reliability.\n  Contact your local sales representative for assistance. This circuit is distributed to customers only for use with ADI parts.\n  Copyright © 2019 Analog Devices Inc. All rights reserved.
TEXT 1272 928 Left 2 !.tran 0 .8m .1m
