Version 4
SHEET 1 2884 916
WIRE -208 -96 -352 -96
WIRE -96 -96 -128 -96
WIRE 0 -96 -96 -96
WIRE 64 -96 0 -96
WIRE 224 -96 64 -96
WIRE -352 -80 -352 -96
WIRE -96 -80 -96 -96
WIRE 224 -80 224 -96
WIRE 0 -64 0 -96
WIRE 64 -16 64 -96
WIRE 80 -16 64 -16
WIRE 416 -16 368 -16
WIRE 480 -16 416 -16
WIRE 608 -16 560 -16
WIRE 720 -16 608 -16
WIRE 816 -16 720 -16
WIRE 928 -16 816 -16
WIRE 1104 -16 928 -16
WIRE 1152 -16 1104 -16
WIRE 1264 -16 1232 -16
WIRE 1312 -16 1264 -16
WIRE 1424 -16 1376 -16
WIRE 1536 -16 1424 -16
WIRE 1632 -16 1536 -16
WIRE 1728 -16 1632 -16
WIRE 416 0 416 -16
WIRE 720 0 720 -16
WIRE 816 0 816 -16
WIRE 1424 0 1424 -16
WIRE 1536 0 1536 -16
WIRE 1632 0 1632 -16
WIRE 1728 0 1728 -16
WIRE -352 16 -352 0
WIRE -96 16 -96 -16
WIRE 0 16 0 0
WIRE 928 32 928 -16
WIRE 1104 32 1104 -16
WIRE 1264 32 1264 -16
WIRE 608 64 608 -16
WIRE 80 80 64 80
WIRE 416 80 416 64
WIRE 416 80 368 80
WIRE 720 80 720 64
WIRE 816 80 816 64
WIRE 1632 96 1632 64
WIRE 1728 96 1728 80
WIRE 848 144 832 144
WIRE 928 144 928 112
WIRE 928 144 912 144
WIRE 1024 144 928 144
WIRE 1424 144 1424 80
WIRE 1424 144 1344 144
WIRE 1536 144 1536 64
WIRE 1536 144 1424 144
WIRE 928 160 928 144
WIRE 1424 160 1424 144
WIRE 0 176 -16 176
WIRE 80 176 64 176
WIRE 608 176 608 144
WIRE 608 176 368 176
WIRE 608 192 608 176
WIRE 928 256 928 240
WIRE 1424 256 1424 240
WIRE 1104 272 1104 256
WIRE 1264 272 1264 256
WIRE 608 288 608 272
WIRE 1104 352 1104 336
WIRE 224 448 224 432
FLAG 224 448 0
FLAG 64 80 0
FLAG 720 80 0
FLAG -352 16 0
FLAG -352 -96 IN
FLAG -16 176 0
FLAG 608 288 0
FLAG 1104 352 0
FLAG 1264 272 0
FLAG 1424 256 0
FLAG 1728 96 0
FLAG 1632 96 0
FLAG 1728 -16 OUT
FLAG 816 80 0
FLAG -96 16 0
FLAG 0 16 0
FLAG 832 144 0
FLAG 928 256 0
SYMBOL PowerProducts\\LTC7138 224 176 R0
SYMATTR InstName U1
SYMBOL voltage -352 -96 R0
WINDOW 123 24 124 Left 2
WINDOW 39 24 152 Left 2
SYMATTR Value PWL(0 0 1u 140
SYMATTR Value2 +6m 140 +1m 5
SYMATTR SpiceLine +3m 5 +1m 140)
SYMATTR InstName V1
SYMBOL ind 464 0 R270
WINDOW 0 32 56 VTop 2
WINDOW 3 5 56 VBottom 2
SYMATTR InstName L1
SYMATTR Value 220µ
SYMATTR SpiceLine Rser=.5
SYMBOL schottky 400 64 M180
WINDOW 0 24 64 Left 2
WINDOW 3 24 0 Left 2
SYMATTR InstName D1
SYMATTR Value RB098BM150
SYMATTR Description Diode
SYMATTR Type diode
SYMBOL cap 704 0 R0
SYMATTR InstName C1
SYMATTR Value 10µ
SYMATTR SpiceLine Rser=2m
SYMBOL cap 64 160 R90
WINDOW 0 0 32 VBottom 2
WINDOW 3 32 32 VTop 2
SYMATTR InstName C2
SYMATTR Value .01µ
SYMBOL res 592 48 R0
SYMATTR InstName R1
SYMATTR Value 178K
SYMBOL res 592 176 R0
SYMATTR InstName R2
SYMATTR Value 12.1K
SYMBOL PowerProducts\\LT8330 1184 144 R0
SYMATTR InstName U2
SYMBOL cap 1088 272 R0
SYMATTR InstName C3
SYMATTR Value 1µ
SYMBOL ind 1136 0 R270
WINDOW 0 32 56 VTop 2
WINDOW 3 5 56 VBottom 2
SYMATTR InstName L2
SYMATTR Value 6.8µ
SYMATTR SpiceLine Rser=.1
SYMBOL res 1408 -16 R0
SYMATTR InstName R3
SYMATTR Value 66.5K
SYMBOL res 1408 144 R0
SYMATTR InstName R4
SYMATTR Value 12K
SYMBOL cap 1520 0 R0
SYMATTR InstName C4
SYMATTR Value 4.7p
SYMBOL cap 1616 0 R0
SYMATTR InstName C5
SYMATTR Value 100µ
SYMATTR SpiceLine Rser=10m
SYMBOL schottky 1312 0 R270
WINDOW 0 32 32 VTop 2
WINDOW 3 0 32 VBottom 2
SYMATTR InstName D2
SYMATTR Value MBR0540
SYMATTR Description Diode
SYMATTR Type diode
SYMBOL polcap 800 0 R0
SYMATTR InstName C6
SYMATTR Value 100µ
SYMATTR SpiceLine Rser=25m
SYMBOL cap -112 -80 R0
SYMATTR InstName C7
SYMATTR Value 4.7µ
SYMATTR SpiceLine Rser=2m
SYMBOL polcap -16 -64 R0
SYMATTR InstName C8
SYMATTR Value 22µ
SYMATTR SpiceLine Rser=25m
SYMBOL res -112 -112 R90
WINDOW 0 0 56 VBottom 2
WINDOW 3 32 56 VTop 2
SYMATTR InstName R6
SYMATTR Value 3m
SYMBOL res 912 16 R0
WINDOW 3 29 82 Left 2
SYMATTR Value 1Meg
SYMATTR InstName R7
SYMBOL res 912 144 R0
SYMATTR InstName R8
SYMATTR Value 562K
SYMBOL cap 912 128 R90
WINDOW 0 0 32 VBottom 2
WINDOW 3 32 32 VTop 2
SYMATTR InstName C9
SYMATTR Value 10n
SYMBOL res 1712 -16 R0
SYMATTR InstName R9
SYMATTR Value 100
TEXT 1328 360 Left 2 !.tran 13m startup
TEXT 96 456 Left 2 ;Note:\n  If 12V < VIN < 140V, the LTC7138 buck is operational and the LT8330 boost is disabled. \n  If VIN < 12.5V, the LTC7138 buck is in PassThru mode and LT8330 boost is operational and maintains VOUT at 10.5V.\n  If the simulation model is not found please update with the "Sync Release" command from the "Tools" menu.\n  It remains the customer's responsibility to verify proper and reliable operation in the actual application.\n  Component substitution and printed circuit board layout may significantly affect circuit performance or reliability.\n  Contact your local sales representative for assistance. This circuit is distributed to customers only for use with ADI parts.\n  Copyright © 2020 Analog Devices Inc. All rights reserved.
TEXT 776 -72 Bottom 2 ;LTC7138 - High Efficiency, 140V 400mA Step-Down Regulator with PassThru\nLT8330 - Low IQ Boost/SEPIC/Inverting Converter with 1A, 60V Switch\nWide Input Voltage Range, Buck or Boost Bias Voltage Power Supply\nInput: 5V to 140V     Output: 12.5V at 100mA
