Version 4
SHEET 1 1396 844
WIRE -272 -64 -368 -64
WIRE -176 -64 -272 -64
WIRE -80 -64 -176 -64
WIRE 48 -64 -80 -64
WIRE 176 -64 48 -64
WIRE 304 -64 176 -64
WIRE -368 -48 -368 -64
WIRE -272 -48 -272 -64
WIRE -176 -48 -176 -64
WIRE -80 -48 -80 -64
WIRE 176 -48 176 -64
WIRE 304 -48 304 -64
WIRE 48 0 48 -64
WIRE 64 0 48 0
WIRE 432 0 416 0
WIRE 528 0 512 0
WIRE -368 48 -368 32
WIRE -272 48 -272 16
WIRE -176 48 -176 16
WIRE -80 48 -80 16
WIRE -16 80 -32 80
WIRE 64 80 48 80
WIRE 528 80 528 0
WIRE 528 80 416 80
WIRE 544 80 528 80
WIRE 624 80 608 80
WIRE 64 160 48 160
WIRE 464 160 416 160
WIRE 640 160 544 160
WIRE 688 160 640 160
WIRE 800 160 688 160
WIRE 912 160 800 160
WIRE 688 176 688 160
WIRE 800 176 800 160
WIRE 912 176 912 160
WIRE 496 240 416 240
WIRE 544 240 496 240
WIRE 640 240 640 160
WIRE 640 240 624 240
WIRE 496 256 496 240
WIRE 688 272 688 240
WIRE 800 272 800 240
WIRE 912 272 912 256
WIRE 912 272 880 272
WIRE 912 288 912 272
WIRE 448 320 416 320
WIRE 496 352 496 336
WIRE 448 384 448 320
WIRE 880 384 880 272
WIRE 880 384 448 384
WIRE -32 400 -48 400
WIRE 64 400 48 400
WIRE 448 400 416 400
WIRE 560 400 448 400
WIRE 448 416 448 400
WIRE 560 432 560 400
WIRE 176 464 176 448
WIRE 304 464 304 448
WIRE 448 512 448 496
WIRE 560 512 560 496
WIRE 448 592 448 576
FLAG -368 48 0
FLAG 176 464 0
FLAG 304 464 0
FLAG -48 400 0
FLAG -32 80 0
FLAG 624 80 0
FLAG 448 592 0
FLAG 912 288 0
FLAG -368 -64 IN
FLAG 912 160 OUT
FLAG 48 160 0
FLAG 560 512 0
FLAG -272 48 0
FLAG -176 48 0
FLAG 688 272 0
FLAG 800 272 0
FLAG 496 352 0
FLAG -80 48 0
SYMBOL voltage -368 -64 R0
WINDOW 123 0 0 Left 2
WINDOW 39 0 0 Left 2
SYMATTR InstName V1
SYMATTR Value 12
SYMBOL res 64 384 R90
WINDOW 0 0 56 VBottom 2
WINDOW 3 32 56 VTop 2
SYMATTR InstName R1
SYMATTR Value 422K
SYMBOL cap 48 64 R90
WINDOW 0 0 32 VBottom 2
WINDOW 3 32 32 VTop 2
SYMATTR InstName C1
SYMATTR Value .001µ
SYMBOL cap 544 96 R270
WINDOW 0 32 32 VTop 2
WINDOW 3 0 32 VBottom 2
SYMATTR InstName C2
SYMATTR Value 4.7µ
SYMBOL ind 448 176 R270
WINDOW 0 32 56 VTop 2
WINDOW 3 5 56 VBottom 2
SYMATTR InstName L1
SYMATTR Value .33µ
SYMBOL res 640 224 R90
WINDOW 0 0 56 VBottom 2
WINDOW 3 32 56 VTop 2
SYMATTR InstName R2
SYMATTR Value 10K
SYMBOL res 480 240 R0
SYMATTR InstName R3
SYMATTR Value 10K
SYMBOL cap 432 512 R0
SYMATTR Value 2200p
SYMATTR InstName C3
SYMBOL cap 672 176 R0
WINDOW 3 35 33 Left 2
WINDOW 123 23 55 Left 2
SYMATTR Value 100µ
SYMATTR Value2 x2
SYMATTR InstName C4
SYMATTR SpiceLine Rser=1m
SYMBOL PowerProducts\\LTC7150S 240 208 R0
SYMATTR InstName U1
SYMBOL res 528 -16 R90
WINDOW 0 0 56 VBottom 2
WINDOW 3 32 56 VTop 2
SYMATTR InstName R4
SYMATTR Value 10K
SYMBOL cap 544 432 R0
WINDOW 39 24 77 Left 2
SYMATTR Value 22p
SYMATTR InstName C5
SYMBOL cap 784 176 R0
WINDOW 3 38 32 Left 2
WINDOW 123 25 54 Left 2
SYMATTR Value 470µ
SYMATTR Value2 x2
SYMATTR InstName C6
SYMATTR SpiceLine Rser=4.3m
SYMBOL cap -288 -48 R0
WINDOW 3 38 33 Left 2
WINDOW 123 23 56 Left 2
SYMATTR Value 22µ
SYMATTR Value2 x2
SYMATTR InstName C7
SYMATTR SpiceLine Rser=1m
SYMBOL cap -192 -48 R0
SYMATTR InstName C8
SYMATTR Value 180µ
SYMATTR SpiceLine Rser=1m
SYMBOL cap -96 -48 R0
SYMATTR InstName C9
SYMATTR Value 10µ
SYMATTR SpiceLine Rser=1m
SYMBOL res 432 400 R0
SYMATTR InstName R5
SYMATTR Value 4.22K
SYMBOL res 896 160 R0
SYMATTR InstName Rload
SYMATTR Value 0.06
TEXT 704 432 Left 2 !.tran 1m startup
TEXT 248 -88 Bottom 2 ;LTC7150S - 20V, 20A Synchronous Step-Down Regulator\nHigh Efficiency Synchronous Buck Regulator \nInput: 3.1V to 20V     Output: 1.2V @ 20A, Fsw = 400kHz
TEXT -384 600 Left 2 ;Note:\n  If the simulation model is not found please update with the "Sync Release" command from the "Tools" menu.\n  It remains the customer's responsibility to verify proper and reliable operation in the actual application.\n  Component substitution and printed circuit board layout may significantly affect circuit performance or reliability.\n  Contact your local sales representative for assistance. This circuit is distributed to customers only for use with ADI parts.\n  Copyright © 2018 Analog Device Inc. All rights reserved.
