Version 4
SHEET 1 4664 2744
WIRE 832 -960 -848 -960
WIRE 624 -896 576 -896
WIRE 688 -896 624 -896
WIRE 832 -896 832 -960
WIRE 832 -896 768 -896
WIRE 992 -896 832 -896
WIRE 1104 -896 992 -896
WIRE 1216 -896 1104 -896
WIRE 1616 -896 1216 -896
WIRE 1680 -896 1616 -896
WIRE 1696 -896 1680 -896
WIRE 624 -880 624 -896
WIRE 1696 -880 1696 -896
WIRE 832 -864 832 -896
WIRE 992 -864 992 -896
WIRE 1104 -864 1104 -896
WIRE 1216 -864 1216 -896
WIRE 624 -800 624 -816
WIRE 1696 -784 1696 -800
WIRE 736 -768 576 -768
WIRE 832 -768 832 -784
WIRE 832 -768 736 -768
WIRE 1216 -768 1216 -800
WIRE 992 -736 992 -784
WIRE 992 -736 576 -736
WIRE 1104 -704 1104 -784
WIRE 1104 -704 576 -704
WIRE 736 -688 736 -768
WIRE 832 -688 832 -768
WIRE 992 -688 992 -736
WIRE 1104 -688 1104 -704
WIRE 592 -592 576 -592
WIRE 688 -592 672 -592
WIRE 736 -592 736 -624
WIRE 832 -592 832 -608
WIRE 992 -592 992 -608
WIRE 1104 -592 1104 -608
WIRE -192 -576 -240 -576
WIRE -80 -576 -112 -576
WIRE 256 -576 -80 -576
WIRE -240 -560 -240 -576
WIRE -80 -560 -80 -576
WIRE 64 -496 16 -496
WIRE 176 -496 144 -496
WIRE 256 -496 176 -496
WIRE 2192 -496 576 -496
WIRE 2304 -496 2192 -496
WIRE -240 -480 -240 -496
WIRE -80 -480 -80 -496
WIRE 16 -480 16 -496
WIRE 176 -480 176 -496
WIRE 1952 -448 576 -448
WIRE 2048 -448 1952 -448
WIRE 1952 -416 1952 -448
WIRE 2048 -416 2048 -448
WIRE 2192 -416 2192 -496
WIRE 2304 -416 2304 -496
WIRE 16 -400 16 -416
WIRE 176 -400 176 -416
WIRE 656 -400 576 -400
WIRE 752 -400 656 -400
WIRE 1872 -400 816 -400
WIRE 656 -384 656 -400
WIRE -64 -352 -560 -352
WIRE 256 -352 224 -352
WIRE 1280 -352 912 -352
WIRE 1280 -336 1280 -352
WIRE -560 -320 -560 -352
WIRE -320 -304 -352 -304
WIRE -224 -304 -256 -304
WIRE -192 -304 -224 -304
WIRE -64 -304 -64 -352
WIRE -64 -304 -112 -304
WIRE 96 -304 -64 -304
WIRE 656 -304 656 -320
WIRE 912 -304 912 -352
WIRE 912 -304 752 -304
WIRE 960 -304 912 -304
WIRE 1072 -304 1040 -304
WIRE 1104 -304 1072 -304
WIRE 1200 -304 1168 -304
WIRE 1952 -304 1952 -336
WIRE 2304 -304 2304 -336
WIRE 1872 -272 1872 -400
WIRE 2048 -272 2048 -336
WIRE 2048 -272 1872 -272
WIRE -224 -256 -224 -304
WIRE 592 -256 576 -256
WIRE 1072 -256 1072 -304
WIRE -944 -224 -976 -224
WIRE -848 -224 -848 -960
WIRE -848 -224 -880 -224
WIRE -640 -224 -848 -224
WIRE 1616 -224 1616 -896
WIRE 1616 -224 1408 -224
WIRE 1648 -224 1616 -224
WIRE 1728 -224 1712 -224
WIRE -560 -192 -560 -256
WIRE -384 -192 -560 -192
WIRE 96 -192 96 -304
WIRE 96 -192 -64 -192
WIRE 752 -192 752 -304
WIRE 912 -192 752 -192
WIRE 1280 -192 1280 -272
WIRE 1280 -192 1232 -192
WIRE -640 -176 -640 -224
WIRE -560 -176 -560 -192
WIRE 96 -176 96 -192
WIRE 752 -176 752 -192
WIRE 1280 -176 1280 -192
WIRE 1408 -176 1408 -224
WIRE -384 -96 -592 -96
WIRE -32 -96 -64 -96
WIRE 96 -96 96 -112
WIRE 752 -96 752 -112
WIRE 912 -96 880 -96
WIRE 1360 -96 1232 -96
WIRE -1568 0 -1696 0
WIRE -1456 0 -1568 0
WIRE -1408 0 -1456 0
WIRE -1312 0 -1408 0
WIRE -1280 0 -1312 0
WIRE -1168 0 -1200 0
WIRE -1088 0 -1168 0
WIRE -960 0 -1008 0
WIRE -640 0 -640 -80
WIRE -640 0 -960 0
WIRE -560 0 -560 -112
WIRE -560 0 -640 0
WIRE -384 0 -560 0
WIRE 1280 0 1280 -112
WIRE 1280 0 1232 0
WIRE 1408 0 1408 -80
WIRE 1408 0 1280 0
WIRE 1696 0 1408 0
WIRE 1744 0 1696 0
WIRE 1904 0 1824 0
WIRE 1936 0 1904 0
WIRE 2048 0 2048 -272
WIRE 2048 0 2016 0
WIRE 2112 0 2048 0
WIRE 2192 0 2192 -336
WIRE 2192 0 2112 0
WIRE -1696 16 -1696 0
WIRE -1568 16 -1568 0
WIRE -1408 16 -1408 0
WIRE -640 16 -640 0
WIRE 1408 16 1408 0
WIRE 2112 16 2112 0
WIRE -1168 48 -1168 0
WIRE -960 48 -960 0
WIRE 1696 48 1696 0
WIRE 1904 48 1904 0
WIRE -384 96 -592 96
WIRE 256 96 -64 96
WIRE 912 96 576 96
WIRE 1360 96 1232 96
WIRE -1696 112 -1696 96
WIRE -1568 112 -1568 80
WIRE -1408 112 -1408 80
WIRE 2112 112 2112 80
WIRE -640 192 -640 112
WIRE -384 192 -640 192
WIRE -48 192 -64 192
WIRE 48 192 32 192
WIRE 816 192 800 192
WIRE 912 192 896 192
WIRE 1408 192 1408 112
WIRE 1408 192 1232 192
WIRE -640 208 -640 192
WIRE 1408 208 1408 192
WIRE -1312 224 -1312 0
WIRE -1104 224 -1312 224
WIRE -1072 224 -1104 224
WIRE -960 224 -960 128
WIRE -960 224 -992 224
WIRE 1696 224 1696 128
WIRE 1728 224 1696 224
WIRE 1824 224 1808 224
WIRE 2048 224 2048 0
WIRE 2048 224 1824 224
WIRE -224 272 -224 256
WIRE 1072 272 1072 256
WIRE -1312 320 -1312 224
WIRE -1280 320 -1312 320
WIRE -1168 320 -1168 128
WIRE -1168 320 -1216 320
WIRE -1104 320 -1104 224
WIRE -1056 320 -1104 320
WIRE -960 320 -960 224
WIRE -960 320 -992 320
WIRE 256 320 -960 320
WIRE 1696 320 1696 224
WIRE 1696 320 576 320
WIRE 1728 320 1696 320
WIRE 1824 320 1824 224
WIRE 1824 320 1792 320
WIRE 1904 320 1904 128
WIRE 1936 320 1904 320
WIRE 2048 320 2048 224
WIRE 2048 320 2000 320
WIRE -1168 368 -1168 320
WIRE 256 368 -1168 368
WIRE 1904 368 1904 320
WIRE 1904 368 576 368
WIRE -1312 416 -1312 320
WIRE 256 416 -1312 416
WIRE 2048 416 2048 320
WIRE 2048 416 576 416
WIRE -64 464 -560 464
WIRE 144 464 128 464
WIRE 256 464 224 464
WIRE 624 464 576 464
WIRE 1280 464 912 464
WIRE -560 480 -560 464
WIRE 1280 480 1280 464
WIRE -320 512 -352 512
WIRE -224 512 -256 512
WIRE -192 512 -224 512
WIRE -64 512 -64 464
WIRE -64 512 -112 512
WIRE 96 512 -64 512
WIRE 768 512 752 512
WIRE 912 512 912 464
WIRE 912 512 768 512
WIRE 960 512 912 512
WIRE 1072 512 1040 512
WIRE 1104 512 1072 512
WIRE 1200 512 1168 512
WIRE -224 560 -224 512
WIRE 1072 560 1072 512
WIRE -944 592 -976 592
WIRE -848 592 -848 -224
WIRE -848 592 -880 592
WIRE -640 592 -848 592
WIRE 1616 592 1616 -224
WIRE 1616 592 1408 592
WIRE 1648 592 1616 592
WIRE 1728 592 1712 592
WIRE -560 624 -560 544
WIRE -384 624 -560 624
WIRE 96 624 96 512
WIRE 96 624 -64 624
WIRE 752 624 752 512
WIRE 912 624 752 624
WIRE 1280 624 1280 544
WIRE 1280 624 1232 624
WIRE -640 640 -640 592
WIRE -560 640 -560 624
WIRE 96 640 96 624
WIRE 752 640 752 624
WIRE 1280 640 1280 624
WIRE 1408 640 1408 592
WIRE -384 720 -592 720
WIRE -32 720 -64 720
WIRE 96 720 96 704
WIRE 752 720 752 704
WIRE 912 720 880 720
WIRE 1360 720 1232 720
WIRE -1456 816 -1456 0
WIRE -1408 816 -1456 816
WIRE -1312 816 -1408 816
WIRE -1280 816 -1312 816
WIRE -1168 816 -1200 816
WIRE -1088 816 -1168 816
WIRE -960 816 -1008 816
WIRE -640 816 -640 736
WIRE -640 816 -960 816
WIRE -560 816 -560 704
WIRE -560 816 -640 816
WIRE -384 816 -560 816
WIRE 1280 816 1280 704
WIRE 1280 816 1232 816
WIRE 1408 816 1408 736
WIRE 1408 816 1280 816
WIRE 1696 816 1408 816
WIRE 1744 816 1696 816
WIRE 1904 816 1824 816
WIRE 1936 816 1904 816
WIRE 2048 816 2016 816
WIRE 2112 816 2048 816
WIRE 2192 816 2192 0
WIRE 2192 816 2112 816
WIRE -640 832 -640 816
WIRE 1408 832 1408 816
WIRE 2112 832 2112 816
WIRE -1408 848 -1408 816
WIRE -1168 864 -1168 816
WIRE 1696 864 1696 816
WIRE 1904 864 1904 816
WIRE -960 880 -960 816
WIRE -384 912 -592 912
WIRE 256 912 -64 912
WIRE 912 912 576 912
WIRE 1360 912 1232 912
WIRE -1408 928 -1408 912
WIRE 2112 928 2112 896
WIRE -640 1008 -640 928
WIRE -384 1008 -640 1008
WIRE -48 1008 -64 1008
WIRE 48 1008 32 1008
WIRE 816 1008 800 1008
WIRE 912 1008 896 1008
WIRE 1408 1008 1408 928
WIRE 1408 1008 1232 1008
WIRE -640 1024 -640 1008
WIRE 1408 1024 1408 1008
WIRE -1312 1040 -1312 816
WIRE -1104 1040 -1312 1040
WIRE -1072 1040 -1104 1040
WIRE -960 1040 -960 960
WIRE -960 1040 -992 1040
WIRE 1696 1040 1696 944
WIRE 1728 1040 1696 1040
WIRE 1872 1040 1808 1040
WIRE 2048 1040 2048 816
WIRE 2048 1040 1872 1040
WIRE -224 1088 -224 1072
WIRE 1072 1088 1072 1072
WIRE -1312 1136 -1312 1040
WIRE -1280 1136 -1312 1136
WIRE -1168 1136 -1168 944
WIRE -1168 1136 -1216 1136
WIRE -1104 1136 -1104 1040
WIRE -1056 1136 -1104 1136
WIRE -960 1136 -960 1040
WIRE -960 1136 -992 1136
WIRE 256 1136 -960 1136
WIRE 1696 1136 1696 1040
WIRE 1696 1136 576 1136
WIRE 1744 1136 1696 1136
WIRE 1872 1136 1872 1040
WIRE 1872 1136 1808 1136
WIRE 1904 1136 1904 944
WIRE 1936 1136 1904 1136
WIRE 2048 1136 2048 1040
WIRE 2048 1136 2000 1136
WIRE -1168 1184 -1168 1136
WIRE 256 1184 -1168 1184
WIRE 1904 1184 1904 1136
WIRE 1904 1184 576 1184
WIRE -1312 1232 -1312 1136
WIRE 256 1232 -1312 1232
WIRE 2048 1232 2048 1136
WIRE 2048 1232 576 1232
WIRE -64 1280 -560 1280
WIRE 624 1280 576 1280
WIRE 1280 1280 912 1280
WIRE -560 1296 -560 1280
WIRE 624 1296 624 1280
WIRE 1280 1312 1280 1280
WIRE -320 1328 -352 1328
WIRE -224 1328 -256 1328
WIRE -192 1328 -224 1328
WIRE -64 1328 -64 1280
WIRE -64 1328 -112 1328
WIRE 96 1328 -64 1328
WIRE 768 1328 752 1328
WIRE 912 1328 912 1280
WIRE 912 1328 768 1328
WIRE 960 1328 912 1328
WIRE 1072 1328 1040 1328
WIRE 1104 1328 1072 1328
WIRE 1200 1328 1168 1328
WIRE -224 1376 -224 1328
WIRE 1072 1376 1072 1328
WIRE 624 1392 624 1376
WIRE -944 1408 -960 1408
WIRE -848 1408 -848 592
WIRE -848 1408 -880 1408
WIRE -640 1408 -848 1408
WIRE 1616 1408 1616 592
WIRE 1616 1408 1408 1408
WIRE 1648 1408 1616 1408
WIRE 1728 1408 1712 1408
WIRE -560 1440 -560 1360
WIRE -384 1440 -560 1440
WIRE 96 1440 96 1328
WIRE 96 1440 -64 1440
WIRE 752 1440 752 1328
WIRE 912 1440 752 1440
WIRE 1280 1440 1280 1376
WIRE 1280 1440 1232 1440
WIRE -640 1456 -640 1408
WIRE -560 1456 -560 1440
WIRE 96 1456 96 1440
WIRE 752 1456 752 1440
WIRE 1280 1456 1280 1440
WIRE 1408 1456 1408 1408
WIRE -384 1536 -592 1536
WIRE -32 1536 -64 1536
WIRE 96 1536 96 1520
WIRE 752 1536 752 1520
WIRE 912 1536 880 1536
WIRE 1360 1536 1232 1536
WIRE -1456 1632 -1456 816
WIRE -1408 1632 -1456 1632
WIRE -1312 1632 -1408 1632
WIRE -1280 1632 -1312 1632
WIRE -1168 1632 -1200 1632
WIRE -1088 1632 -1168 1632
WIRE -960 1632 -1008 1632
WIRE -640 1632 -640 1552
WIRE -640 1632 -960 1632
WIRE -560 1632 -560 1520
WIRE -560 1632 -640 1632
WIRE -384 1632 -560 1632
WIRE 1280 1632 1280 1520
WIRE 1280 1632 1232 1632
WIRE 1408 1632 1408 1552
WIRE 1408 1632 1280 1632
WIRE 1696 1632 1408 1632
WIRE 1744 1632 1696 1632
WIRE 1904 1632 1824 1632
WIRE 1936 1632 1904 1632
WIRE 2048 1632 2016 1632
WIRE 2112 1632 2048 1632
WIRE 2192 1632 2192 816
WIRE 2192 1632 2112 1632
WIRE -640 1648 -640 1632
WIRE 1408 1648 1408 1632
WIRE 2112 1648 2112 1632
WIRE -1408 1664 -1408 1632
WIRE -1168 1680 -1168 1632
WIRE -960 1680 -960 1632
WIRE 1696 1680 1696 1632
WIRE 1904 1680 1904 1632
WIRE -384 1728 -592 1728
WIRE 256 1728 -64 1728
WIRE 912 1728 576 1728
WIRE 1360 1728 1232 1728
WIRE -1408 1744 -1408 1728
WIRE 2112 1744 2112 1712
WIRE -640 1824 -640 1744
WIRE -384 1824 -640 1824
WIRE -48 1824 -64 1824
WIRE 48 1824 32 1824
WIRE 816 1824 800 1824
WIRE 912 1824 896 1824
WIRE 1408 1824 1408 1744
WIRE 1408 1824 1232 1824
WIRE -640 1840 -640 1824
WIRE 1408 1840 1408 1824
WIRE -1312 1856 -1312 1632
WIRE -1104 1856 -1312 1856
WIRE -1072 1856 -1104 1856
WIRE -960 1856 -960 1760
WIRE -960 1856 -992 1856
WIRE 1696 1856 1696 1760
WIRE 1728 1856 1696 1856
WIRE 1840 1856 1808 1856
WIRE 2048 1856 2048 1632
WIRE 2048 1856 1840 1856
WIRE -224 1904 -224 1888
WIRE 1072 1904 1072 1888
WIRE -1312 1952 -1312 1856
WIRE -1280 1952 -1312 1952
WIRE -1168 1952 -1168 1760
WIRE -1168 1952 -1216 1952
WIRE -1104 1952 -1104 1856
WIRE -1056 1952 -1104 1952
WIRE -960 1952 -960 1856
WIRE -960 1952 -992 1952
WIRE 256 1952 -960 1952
WIRE 1696 1952 1696 1856
WIRE 1696 1952 576 1952
WIRE 1744 1952 1696 1952
WIRE 1840 1952 1840 1856
WIRE 1840 1952 1808 1952
WIRE 1904 1952 1904 1760
WIRE 1936 1952 1904 1952
WIRE 2048 1952 2048 1856
WIRE 2048 1952 2000 1952
WIRE -1168 2000 -1168 1952
WIRE 256 2000 -1168 2000
WIRE 1904 2000 1904 1952
WIRE 1904 2000 576 2000
WIRE -1312 2048 -1312 1952
WIRE 256 2048 -1312 2048
WIRE 2048 2048 2048 1952
WIRE 2048 2048 576 2048
WIRE 256 2096 -160 2096
WIRE 640 2096 576 2096
WIRE 816 2096 640 2096
WIRE 896 2096 880 2096
WIRE -160 2144 -160 2096
WIRE -96 2144 -160 2144
WIRE 32 2144 -16 2144
WIRE 96 2144 32 2144
WIRE 256 2144 96 2144
WIRE 704 2144 576 2144
WIRE 784 2144 768 2144
WIRE -160 2160 -160 2144
WIRE 32 2160 32 2144
WIRE 96 2192 96 2144
WIRE 128 2192 96 2192
WIRE 256 2192 208 2192
WIRE 592 2192 576 2192
WIRE 672 2192 656 2192
WIRE -160 2256 -160 2240
WIRE 32 2256 32 2224
WIRE 416 2256 416 2240
WIRE -1456 2304 -1456 1632
WIRE 2192 2304 2192 1632
WIRE 2192 2304 -1456 2304
FLAG 2304 -304 0
FLAG -80 -480 0
FLAG 416 2256 0
FLAG 1952 -304 0
FLAG -640 208 0
FLAG 656 -304 0
FLAG 624 -800 0
FLAG 96 2144 V5
FLAG 624 464 V5
FLAG 624 1280 PWMEN
FLAG 96 -96 0
FLAG -352 -304 0
FLAG -224 272 0
FLAG -32 -96 PWMEN
FLAG 96 -304 DRVcc
FLAG 1216 -768 0
FLAG -976 -224 0
FLAG -1408 112 0
FLAG 1680 -896 HIGH
FLAG 624 1392 V5
FLAG -640 1024 0
FLAG 96 720 0
FLAG -352 512 0
FLAG -224 1088 0
FLAG -32 720 PWMEN
FLAG 96 512 DRVcc
FLAG -1408 928 0
FLAG -976 592 0
FLAG -640 1840 0
FLAG 96 1536 0
FLAG -352 1328 0
FLAG -224 1904 0
FLAG -32 1536 PWMEN
FLAG 96 1328 DRVcc
FLAG -1408 1744 0
FLAG -960 1408 0
FLAG 1408 1840 0
FLAG 752 1536 0
FLAG 1200 1328 0
FLAG 1072 1904 0
FLAG 880 1536 PWMEN
FLAG 768 1328 DRVcc
FLAG 2112 1744 0
FLAG 1728 1408 0
FLAG 1408 1024 0
FLAG 752 720 0
FLAG 1200 512 0
FLAG 1072 1088 0
FLAG 880 720 PWMEN
FLAG 768 512 DRVcc
FLAG 2112 928 0
FLAG 1728 592 0
FLAG 1408 208 0
FLAG 752 -96 0
FLAG 1200 -304 0
FLAG 1072 272 0
FLAG 880 -96 PWMEN
FLAG 752 -304 DRVcc
FLAG 2112 112 0
FLAG 1728 -224 0
FLAG 592 -256 0
FLAG -1696 0 LOW
FLAG 1104 -592 0
FLAG 640 2096 DRVCC
FLAG 1696 -784 0
FLAG 128 464 0
FLAG 832 -592 0
FLAG 992 -592 0
FLAG 736 -592 0
FLAG -240 -480 0
FLAG 16 -400 0
FLAG 176 -400 0
FLAG 48 192 0
FLAG 48 1008 0
FLAG 48 1824 0
FLAG 800 192 0
FLAG 800 1008 0
FLAG 800 1824 0
FLAG -160 2256 0
FLAG 32 2256 0
FLAG 672 2192 0
FLAG 784 2144 0
FLAG 896 2096 0
FLAG -1696 112 0
FLAG -1568 112 0
FLAG 688 -592 0
FLAG 224 -352 V5
SYMBOL cap 160 -480 R0
SYMATTR InstName C1
SYMATTR Value 47p
SYMBOL cap 0 -416 M180
WINDOW 0 24 56 Left 2
WINDOW 3 24 8 Left 2
SYMATTR InstName C2
SYMATTR Value .1µ
SYMBOL res 2176 -432 R0
SYMATTR InstName R1
SYMATTR Value 107K
SYMBOL PowerProducts\\LTC7060 -224 0 M0
SYMATTR InstName U2
SYMBOL NMOS -592 -176 M0
WINDOW 123 66 69 Left 2
WINDOW 0 62 16 Left 2
WINDOW 3 62 45 Left 2
SYMATTR Value2 m=2
SYMATTR InstName M1
SYMATTR Value BSC123N08NS3
SYMBOL NMOS -592 16 M0
WINDOW 123 62 70 Left 2
WINDOW 0 59 14 Left 2
WINDOW 3 59 43 Left 2
SYMATTR Value2 m=2
SYMATTR InstName M2
SYMATTR Value BSC047N08NS3
SYMBOL res 2288 -432 R0
SYMATTR InstName R2
SYMATTR Value 10K
SYMBOL res 160 -512 R90
WINDOW 0 0 56 VBottom 2
WINDOW 3 32 56 VTop 2
SYMATTR InstName R3
SYMATTR Value 1K
SYMBOL cap -96 -560 R0
SYMATTR InstName C3
SYMATTR Value 47p
SYMBOL cap -256 -496 M180
WINDOW 0 24 56 Left 2
WINDOW 3 24 8 Left 2
SYMATTR InstName C4
SYMATTR Value .1µ
SYMBOL res -96 -592 R90
WINDOW 0 0 56 VBottom 2
WINDOW 3 32 56 VTop 2
SYMATTR InstName R4
SYMATTR Value 3.01K
SYMBOL res 1088 -880 R0
SYMATTR InstName R5
SYMATTR Value 499K
SYMBOL res 1088 -704 R0
SYMATTR InstName R6
SYMATTR Value 12.7K
SYMBOL cap 16 2160 R0
SYMATTR InstName C5
SYMATTR Value 4.7µ
SYMBOL cap 592 2208 R270
WINDOW 0 32 32 VTop 2
WINDOW 3 0 32 VBottom 2
SYMATTR InstName C6
SYMATTR Value 100p
SYMBOL res 240 448 R90
WINDOW 0 0 56 VBottom 2
WINDOW 3 32 56 VTop 2
SYMATTR InstName R7
SYMATTR Value 45.3K
SYMBOL res 816 -880 R0
SYMATTR InstName R8
SYMATTR Value 3.01Meg
SYMBOL res 816 -704 R0
SYMATTR InstName R9
SYMATTR Value 48.7K
SYMBOL res 976 -880 R0
SYMATTR InstName R10
SYMATTR Value 210K
SYMBOL res 976 -704 R0
SYMATTR InstName R11
SYMATTR Value 10K
SYMBOL res 2032 -432 R0
SYMATTR InstName R12
SYMATTR Value 130K
SYMBOL res 1936 -432 R0
SYMATTR InstName R13
SYMATTR Value 10K
SYMBOL res 608 1280 R0
SYMATTR InstName R14
SYMATTR Value 10K
SYMBOL res 224 2176 R90
WINDOW 0 0 56 VBottom 2
WINDOW 3 32 56 VTop 2
SYMATTR InstName R15
SYMATTR Value 51K
SYMBOL cap 640 -384 R0
SYMATTR InstName C7
SYMATTR Value 1µ
SYMBOL cap 816 2112 R270
WINDOW 0 32 32 VTop 2
WINDOW 3 0 32 VBottom 2
SYMATTR InstName C8
SYMATTR Value 4.7µ
SYMBOL cap 608 -880 R0
SYMATTR InstName C9
SYMATTR Value 1µ
SYMBOL res 784 -912 R90
WINDOW 0 0 56 VBottom 2
WINDOW 3 32 56 VTop 2
SYMATTR InstName R17
SYMATTR Value 2.2
SYMBOL res 0 2128 R90
WINDOW 0 0 56 VBottom 2
WINDOW 3 32 56 VTop 2
SYMATTR InstName R18
SYMATTR Value 10K
SYMBOL res -176 2144 R0
SYMATTR InstName R19
SYMATTR Value 30.1K
SYMBOL res 688 -608 R90
WINDOW 0 0 56 VBottom 2
WINDOW 3 32 56 VTop 2
SYMATTR InstName R20
SYMATTR Value 37.4K
SYMBOL cap 80 -176 R0
SYMATTR InstName C10
SYMATTR Value 1µ
SYMBOL cap -256 -320 R90
WINDOW 0 0 32 VBottom 2
WINDOW 3 32 32 VTop 2
SYMATTR InstName C11
SYMATTR Value .22µ
SYMBOL res -96 -288 M270
WINDOW 0 32 56 VTop 2
WINDOW 3 0 56 VBottom 2
SYMATTR InstName R21
SYMATTR Value 10
SYMBOL cap -576 -176 R0
SYMATTR InstName C12
SYMATTR Value .22µ
SYMBOL res -64 176 M90
WINDOW 0 0 56 VBottom 2
WINDOW 3 32 56 VTop 2
SYMATTR InstName R22
SYMATTR Value 0
SYMBOL ind -992 16 M270
WINDOW 0 32 56 VTop 2
WINDOW 3 5 56 VBottom 2
SYMATTR InstName L1
SYMATTR Value 6.8µ
SYMATTR SpiceLine Rser=1.8m
SYMBOL res -1184 -16 R90
WINDOW 0 0 56 VBottom 2
WINDOW 3 32 56 VTop 2
SYMATTR InstName RS1
SYMATTR Value 1m
SYMBOL cap -1424 16 R0
SYMATTR Value 6.4µ
SYMATTR InstName C13
SYMATTR SpiceLine Rser=2m
SYMBOL polcap -1584 16 R0
WINDOW 3 46 34 Left 2
WINDOW 123 46 58 Left 2
WINDOW 0 48 8 Left 2
SYMATTR Value 100µ
SYMATTR Value2 m=6
SYMATTR InstName C14
SYMATTR Description Capacitor
SYMATTR Type cap
SYMATTR SpiceLine Rser=30m
SYMBOL res -976 32 R0
SYMATTR InstName R24
SYMATTR Value 16.9K
SYMBOL res -1184 32 R0
SYMATTR InstName R25
SYMATTR Value 1.5K
SYMBOL cap -880 -208 M270
WINDOW 123 -21 32 VBottom 2
WINDOW 3 0 32 VBottom 2
WINDOW 0 32 32 VTop 2
SYMATTR Value2 x2
SYMATTR Value 1.1µ
SYMATTR InstName C15
SYMATTR SpiceLine Rser=6m
SYMBOL polcap 1200 -864 R0
WINDOW 3 40 31 Left 2
WINDOW 123 30 55 Left 2
SYMATTR Value 33µ
SYMATTR Value2 m=12
SYMATTR InstName C16
SYMATTR SpiceLine Rser=36m
SYMATTR Description Capacitor
SYMATTR Type cap
SYMBOL cap -992 304 R90
WINDOW 0 0 32 VBottom 2
WINDOW 3 32 32 VTop 2
SYMATTR InstName C17
SYMATTR Value .1µ
SYMBOL res -976 208 R90
WINDOW 0 0 56 VBottom 2
WINDOW 3 32 56 VTop 2
SYMATTR InstName R26
SYMATTR Value 1.69K
SYMBOL cap -1216 304 R90
WINDOW 0 0 32 VBottom 2
WINDOW 3 32 32 VTop 2
SYMATTR InstName C18
SYMATTR Value .1µ
SYMBOL PowerProducts\\LTC7060 -224 816 M0
SYMATTR InstName U3
SYMBOL NMOS -592 640 M0
WINDOW 123 60 76 Left 2
WINDOW 0 57 25 Left 2
WINDOW 3 59 52 Left 2
SYMATTR Value2 m=2
SYMATTR InstName M3
SYMATTR Value BSC123N08NS3
SYMBOL NMOS -592 832 M0
WINDOW 123 62 72 Left 2
WINDOW 0 59 24 Left 2
WINDOW 3 59 49 Left 2
SYMATTR Value2 m=2
SYMATTR InstName M4
SYMATTR Value BSC047N08NS3
SYMBOL cap 112 640 M0
SYMATTR InstName C19
SYMATTR Value 1µ
SYMBOL cap -256 496 R90
WINDOW 0 0 32 VBottom 2
WINDOW 3 32 32 VTop 2
SYMATTR InstName C20
SYMATTR Value .22µ
SYMBOL res -96 528 M270
WINDOW 0 32 56 VTop 2
WINDOW 3 0 56 VBottom 2
SYMATTR InstName R28
SYMATTR Value 10
SYMBOL cap -576 640 R0
SYMATTR InstName C21
SYMATTR Value .22µ
SYMBOL res -64 992 M90
WINDOW 0 0 56 VBottom 2
WINDOW 3 32 56 VTop 2
SYMATTR InstName R29
SYMATTR Value 0
SYMBOL ind -992 832 M270
WINDOW 0 32 56 VTop 2
WINDOW 3 5 56 VBottom 2
SYMATTR InstName L2
SYMATTR Value 6.8µ
SYMATTR SpiceLine Rser=1.8m
SYMBOL res -1184 800 R90
WINDOW 0 0 56 VBottom 2
WINDOW 3 32 56 VTop 2
SYMATTR InstName RS2
SYMATTR Value 1m
SYMBOL res -976 864 R0
SYMATTR InstName R31
SYMATTR Value 16.9K
SYMBOL res -1184 848 R0
SYMATTR InstName R32
SYMATTR Value 1.5K
SYMBOL cap -1424 848 R0
WINDOW 3 40 31 Left 2
SYMATTR Value 6.4µ
SYMATTR InstName C22
SYMATTR SpiceLine Rser=2m
SYMBOL cap -880 608 M270
WINDOW 123 -21 32 VBottom 2
WINDOW 3 0 32 VBottom 2
WINDOW 0 32 32 VTop 2
SYMATTR Value2 x2
SYMATTR Value 1.1µ
SYMATTR InstName C23
SYMATTR SpiceLine Rser=6m
SYMBOL cap -1216 1120 R90
WINDOW 0 0 32 VBottom 2
WINDOW 3 32 32 VTop 2
SYMATTR InstName C24
SYMATTR Value .1µ
SYMBOL cap -992 1120 R90
WINDOW 0 0 32 VBottom 2
WINDOW 3 32 32 VTop 2
SYMATTR InstName C25
SYMATTR Value .1µ
SYMBOL res -976 1024 R90
WINDOW 0 0 56 VBottom 2
WINDOW 3 32 56 VTop 2
SYMATTR InstName R33
SYMATTR Value 1.69K
SYMBOL PowerProducts\\LTC7060 -224 1632 M0
SYMATTR InstName U4
SYMBOL NMOS -592 1456 M0
WINDOW 123 61 72 Left 2
WINDOW 0 57 21 Left 2
WINDOW 3 58 49 Left 2
SYMATTR Value2 m=2
SYMATTR InstName M5
SYMATTR Value BSC123N08NS3
SYMBOL NMOS -592 1648 M0
WINDOW 123 59 78 Left 2
WINDOW 0 56 25 Left 2
WINDOW 3 57 55 Left 2
SYMATTR Value2 m=2
SYMATTR InstName M6
SYMATTR Value BSC047N08NS3
SYMBOL cap 112 1456 M0
SYMATTR InstName C26
SYMATTR Value 1µ
SYMBOL cap -256 1312 R90
WINDOW 0 0 32 VBottom 2
WINDOW 3 32 32 VTop 2
SYMATTR InstName C27
SYMATTR Value .22µ
SYMBOL res -96 1344 M270
WINDOW 0 32 56 VTop 2
WINDOW 3 0 56 VBottom 2
SYMATTR InstName R34
SYMATTR Value 10
SYMBOL cap -576 1456 R0
SYMATTR InstName C28
SYMATTR Value .22µ
SYMBOL res -64 1808 M90
WINDOW 0 0 56 VBottom 2
WINDOW 3 32 56 VTop 2
SYMATTR InstName R35
SYMATTR Value 0
SYMBOL ind -992 1648 M270
WINDOW 0 32 56 VTop 2
WINDOW 3 5 56 VBottom 2
SYMATTR InstName L3
SYMATTR Value 6.8µ
SYMATTR SpiceLine Rser=1.8m
SYMBOL res -1184 1616 R90
WINDOW 0 0 56 VBottom 2
WINDOW 3 32 56 VTop 2
SYMATTR InstName RS3
SYMATTR Value 1m
SYMBOL res -976 1664 R0
SYMATTR InstName R37
SYMATTR Value 16.9K
SYMBOL res -1184 1664 R0
SYMATTR InstName R38
SYMATTR Value 1.5K
SYMBOL cap -1424 1664 R0
WINDOW 3 40 31 Left 2
SYMATTR Value 6.4µ
SYMATTR InstName C29
SYMATTR SpiceLine Rser=2m
SYMBOL cap -880 1392 R90
WINDOW 123 53 32 VTop 2
WINDOW 3 32 32 VTop 2
WINDOW 0 0 32 VBottom 2
SYMATTR Value2 x2
SYMATTR Value 1.1µ
SYMATTR InstName C30
SYMATTR SpiceLine Rser=6m
SYMBOL cap -992 1936 R90
WINDOW 0 0 32 VBottom 2
WINDOW 3 32 32 VTop 2
SYMATTR InstName C31
SYMATTR Value .1µ
SYMBOL res -976 1840 R90
WINDOW 0 0 56 VBottom 2
WINDOW 3 32 56 VTop 2
SYMATTR InstName R39
SYMATTR Value 1.69K
SYMBOL cap -1216 1936 R90
WINDOW 0 0 32 VBottom 2
WINDOW 3 32 32 VTop 2
SYMATTR InstName C32
SYMATTR Value .1µ
SYMBOL PowerProducts\\LTC7060 1072 1632 R0
SYMATTR InstName U5
SYMBOL NMOS 1360 1456 R0
WINDOW 123 56 100 Left 2
SYMATTR Value2 m=2
SYMATTR InstName M7
SYMATTR Value BSC123N08NS3
SYMBOL NMOS 1360 1648 R0
WINDOW 123 60 71 Left 2
WINDOW 0 56 26 Left 2
WINDOW 3 56 48 Left 2
SYMATTR Value2 m=2
SYMATTR InstName M8
SYMATTR Value BSC047N08NS3
SYMBOL cap 736 1456 R0
SYMATTR InstName C33
SYMATTR Value 1µ
SYMBOL cap 1104 1312 M90
WINDOW 0 0 32 VBottom 2
WINDOW 3 32 32 VTop 2
SYMATTR InstName C34
SYMATTR Value .22µ
SYMBOL res 944 1344 R270
WINDOW 0 32 56 VTop 2
WINDOW 3 0 56 VBottom 2
SYMATTR InstName R40
SYMATTR Value 10
SYMBOL cap 1264 1456 R0
SYMATTR InstName C35
SYMATTR Value .22µ
SYMBOL res 912 1808 R90
WINDOW 0 0 56 VBottom 2
WINDOW 3 32 56 VTop 2
SYMATTR InstName R41
SYMATTR Value 0
SYMBOL ind 1728 1648 R270
WINDOW 0 32 56 VTop 2
WINDOW 3 5 56 VBottom 2
SYMATTR InstName L4
SYMATTR Value 6.8µ
SYMATTR SpiceLine Rser=1.8m
SYMBOL res 1920 1616 M90
WINDOW 0 0 56 VBottom 2
WINDOW 3 32 56 VTop 2
SYMATTR InstName RS4
SYMATTR Value 1m
SYMBOL res 1680 1664 R0
SYMATTR InstName R43
SYMATTR Value 16.9K
SYMBOL res 1888 1664 R0
SYMATTR InstName R44
SYMATTR Value 1.5K
SYMBOL cap 2096 1648 R0
SYMATTR Value 6.4µ
SYMATTR InstName C36
SYMATTR SpiceLine Rser=2m
SYMBOL cap 1648 1424 R270
WINDOW 123 -21 32 VBottom 2
WINDOW 3 0 32 VBottom 2
WINDOW 0 32 32 VTop 2
SYMATTR Value2 x2
SYMATTR Value 1.1µ
SYMATTR InstName C37
SYMATTR SpiceLine Rser=6m
SYMBOL cap 2000 1936 R90
WINDOW 0 0 32 VBottom 2
WINDOW 3 32 32 VTop 2
SYMATTR InstName C38
SYMATTR Value .1µ
SYMBOL cap 1808 1936 R90
WINDOW 0 0 32 VBottom 2
WINDOW 3 32 32 VTop 2
SYMATTR InstName C39
SYMATTR Value .1µ
SYMBOL res 1824 1840 R90
WINDOW 0 0 56 VBottom 2
WINDOW 3 32 56 VTop 2
SYMATTR InstName R45
SYMATTR Value 1.69K
SYMBOL PowerProducts\\LTC7060 1072 816 R0
SYMATTR InstName U6
SYMBOL NMOS 1360 640 R0
WINDOW 123 56 100 Left 2
SYMATTR Value2 m=2
SYMATTR InstName M9
SYMATTR Value BSC123N08NS3
SYMBOL NMOS 1360 832 R0
WINDOW 123 60 65 Left 2
WINDOW 0 60 24 Left 2
WINDOW 3 60 46 Left 2
SYMATTR Value2 m=2
SYMATTR InstName M10
SYMATTR Value BSC047N08NS3
SYMBOL cap 736 640 R0
SYMATTR InstName C40
SYMATTR Value 1µ
SYMBOL cap 1104 496 M90
WINDOW 0 0 32 VBottom 2
WINDOW 3 32 32 VTop 2
SYMATTR InstName C41
SYMATTR Value .22µ
SYMBOL res 944 528 R270
WINDOW 0 32 56 VTop 2
WINDOW 3 0 56 VBottom 2
SYMATTR InstName R46
SYMATTR Value 10
SYMBOL cap 1264 640 R0
SYMATTR InstName C42
SYMATTR Value .22µ
SYMBOL res 912 992 R90
WINDOW 0 0 56 VBottom 2
WINDOW 3 32 56 VTop 2
SYMATTR InstName R47
SYMATTR Value 0
SYMBOL ind 1728 832 R270
WINDOW 0 32 56 VTop 2
WINDOW 3 5 56 VBottom 2
SYMATTR InstName L5
SYMATTR Value 6.8µ
SYMATTR SpiceLine Rser=1.8m
SYMBOL res 1920 800 M90
WINDOW 0 0 56 VBottom 2
WINDOW 3 32 56 VTop 2
SYMATTR InstName RS5
SYMATTR Value 1m
SYMBOL res 1680 848 R0
SYMATTR InstName R49
SYMATTR Value 16.9K
SYMBOL res 1888 848 R0
SYMATTR InstName R50
SYMATTR Value 1.5K
SYMBOL cap 2096 832 R0
WINDOW 3 40 31 Left 2
SYMATTR Value 6.4µ
SYMATTR InstName C43
SYMATTR SpiceLine Rser=2m
SYMBOL cap 1648 608 R270
WINDOW 123 -21 32 VBottom 2
WINDOW 3 0 32 VBottom 2
WINDOW 0 32 32 VTop 2
SYMATTR Value2 x2
SYMATTR Value 1.1µ
SYMATTR InstName C44
SYMATTR SpiceLine Rser=6m
SYMBOL cap 1808 1120 R90
WINDOW 0 0 32 VBottom 2
WINDOW 3 32 32 VTop 2
SYMATTR InstName C45
SYMATTR Value .1µ
SYMBOL res 1824 1024 R90
WINDOW 0 0 56 VBottom 2
WINDOW 3 32 56 VTop 2
SYMATTR InstName R51
SYMATTR Value 1.69K
SYMBOL cap 2000 1120 R90
WINDOW 0 0 32 VBottom 2
WINDOW 3 32 32 VTop 2
SYMATTR InstName C46
SYMATTR Value .1µ
SYMBOL PowerProducts\\LTC7060 1072 0 R0
SYMATTR InstName U7
SYMBOL NMOS 1360 -176 R0
WINDOW 123 58 99 Left 2
SYMATTR Value2 m=2
SYMATTR InstName M11
SYMATTR Value BSC123N08NS3
SYMBOL NMOS 1360 16 R0
WINDOW 123 56 100 Left 2
SYMATTR Value2 m=2
SYMATTR InstName M12
SYMATTR Value BSC047N08NS3
SYMBOL schottky 1264 -336 R0
SYMATTR InstName D6
SYMATTR Value RB168MM100
SYMATTR Description Diode
SYMATTR Type diode
SYMBOL cap 736 -176 R0
SYMATTR InstName C47
SYMATTR Value 1µ
SYMBOL cap 1104 -320 M90
WINDOW 0 0 32 VBottom 2
WINDOW 3 32 32 VTop 2
SYMATTR InstName C48
SYMATTR Value .22µ
SYMBOL res 944 -288 R270
WINDOW 0 32 56 VTop 2
WINDOW 3 0 56 VBottom 2
SYMATTR InstName R52
SYMATTR Value 10
SYMBOL cap 1264 -176 R0
SYMATTR InstName C49
SYMATTR Value .22µ
SYMBOL res 912 176 R90
WINDOW 0 0 56 VBottom 2
WINDOW 3 32 56 VTop 2
SYMATTR InstName R53
SYMATTR Value 0
SYMBOL ind 1728 16 R270
WINDOW 0 32 56 VTop 2
WINDOW 3 5 56 VBottom 2
SYMATTR InstName L6
SYMATTR Value 6.8µ
SYMATTR SpiceLine Rser=1.8m
SYMBOL res 1920 -16 M90
WINDOW 0 0 56 VBottom 2
WINDOW 3 32 56 VTop 2
SYMATTR InstName RS6
SYMATTR Value 1m
SYMBOL res 1680 32 R0
SYMATTR InstName R55
SYMATTR Value 16.9K
SYMBOL res 1888 32 R0
SYMATTR InstName R56
SYMATTR Value 1.5K
SYMBOL cap 2096 16 R0
WINDOW 3 40 31 Left 2
SYMATTR Value 6.4µ
SYMATTR InstName C50
SYMATTR SpiceLine Rser=2m
SYMBOL cap 1648 -208 R270
WINDOW 123 -21 32 VBottom 2
WINDOW 3 0 32 VBottom 2
WINDOW 0 32 32 VTop 2
SYMATTR Value2 x2
SYMATTR Value 1.1µ
SYMATTR InstName C51
SYMATTR SpiceLine Rser=6m
SYMBOL cap 2000 304 R90
WINDOW 0 0 32 VBottom 2
WINDOW 3 32 32 VTop 2
SYMATTR InstName C52
SYMATTR Value .1µ
SYMBOL cap 1792 304 R90
WINDOW 0 0 32 VBottom 2
WINDOW 3 32 32 VTop 2
SYMATTR InstName C53
SYMATTR Value .1µ
SYMBOL res 1824 208 R90
WINDOW 0 0 56 VBottom 2
WINDOW 3 32 56 VTop 2
SYMATTR InstName R57
SYMATTR Value 1.69K
SYMBOL cap 704 2160 R270
WINDOW 0 32 32 VTop 2
WINDOW 3 0 32 VBottom 2
SYMATTR InstName C54
SYMATTR Value 470p
SYMBOL schottky 1264 1312 R0
SYMATTR InstName D4
SYMATTR Value RB168MM100
SYMATTR Description Diode
SYMATTR Type diode
SYMBOL schottky -576 1296 R0
SYMATTR Value RB168MM100
SYMATTR InstName D3
SYMATTR Description Diode
SYMATTR Type diode
SYMBOL schottky -576 480 R0
SYMATTR Value RB168MM100
SYMATTR InstName D2
SYMATTR Description Diode
SYMATTR Type diode
SYMBOL schottky -576 -320 R0
SYMATTR Value RB168MM100
SYMATTR InstName D1
SYMATTR Description Diode
SYMATTR Type diode
SYMBOL schottky 1264 480 R0
SYMATTR InstName D5
SYMATTR Value RB168MM100
SYMATTR Description Diode
SYMATTR Type diode
SYMBOL cap 720 -688 R0
SYMATTR InstName C55
SYMATTR Value 47p
SYMBOL PowerProducts\\LTC7871 416 656 R0
SYMATTR InstName U1
SYMBOL schottky 816 -416 R90
WINDOW 0 0 32 VBottom 2
WINDOW 3 32 32 VTop 2
SYMATTR InstName D7
SYMATTR Value RSX205L-30
SYMATTR Description Diode
SYMATTR Type diode
SYMBOL voltage 1696 -896 R0
WINDOW 123 0 0 Left 2
WINDOW 39 0 0 Left 2
SYMATTR InstName V1
SYMATTR Value 48
SYMBOL res -1712 0 R0
SYMATTR InstName Rload
SYMATTR Value 77m
TEXT 1848 2368 Left 4 !.tran 1.5m startup
TEXT 2096 160 Left 2 ;Cnom\n10u
TEXT 2096 968 Left 2 ;Cnom\n10u
TEXT 2088 1776 Left 2 ;Cnom\n10u
TEXT -1432 1784 Left 2 ;Cnom\n10u
TEXT -1432 960 Left 2 ;Cnom\n10u
TEXT -1432 144 Left 2 ;Cnom\n10u
TEXT 1656 -136 Left 2 ;Cnom\n2.2u
TEXT 1648 680 Left 2 ;Cnom\n2.2u
TEXT 1656 1496 Left 2 ;Cnom\n2.2u
TEXT -944 1488 Left 2 ;Cnom\n2.2u
TEXT -880 672 Right 2 ;Cnom\n2.2u
TEXT -888 -144 Right 2 ;Cnom\n2.2u
TEXT 432 -1008 Bottom 4 ;LTC7871 High Power PolyPhase Bi-Directional Supply / Charger\n48V-to-14V, 6-Phase, 2.5kW Bidirectional Supply/Charger - Buck Mode\nHIGH (Input): 30V - 60V  LOW (Output): 14V @ 180A
TEXT -440 2344 Left 4 ;Note:\n  Functions related to SCLK, SDI, SDO and CSB are not modeled\n  If the simulation model is not found please update with the "Sync Release" command from the "Tools" menu.\n  It remains the customer's responsibility to verify proper and reliable operation in the actual application.\n  Component substitution and printed circuit board layout may significantly affect circuit performance or reliability.\n  Contact your local sales representative for assistance. This circuit is distributed to customers only for use with ADI parts.\n  Copyright © 2021 Analog Devices Inc. All rights reserved.
