Version 4
SHEET 1 1320 748
WIRE -256 -64 -352 -64
WIRE -160 -64 -256 -64
WIRE -64 -64 -160 -64
WIRE 48 -64 -64 -64
WIRE 176 -64 48 -64
WIRE 304 -64 176 -64
WIRE -352 -48 -352 -64
WIRE -256 -48 -256 -64
WIRE -160 -48 -160 -64
WIRE -64 -48 -64 -64
WIRE 176 -48 176 -64
WIRE 304 -48 304 -64
WIRE 48 0 48 -64
WIRE 64 0 48 0
WIRE 464 0 416 0
WIRE 560 0 544 0
WIRE -352 48 -352 32
WIRE -256 48 -256 16
WIRE -160 48 -160 16
WIRE -64 48 -64 16
WIRE -16 80 -32 80
WIRE 64 80 48 80
WIRE 560 80 560 0
WIRE 560 80 416 80
WIRE 576 80 560 80
WIRE 64 160 48 160
WIRE 464 160 416 160
WIRE 656 160 544 160
WIRE 704 160 656 160
WIRE 784 160 704 160
WIRE 880 160 784 160
WIRE 992 160 880 160
WIRE 704 176 704 160
WIRE 784 176 784 160
WIRE 880 176 880 160
WIRE 992 176 992 160
WIRE 496 240 416 240
WIRE 544 240 496 240
WIRE 656 240 656 160
WIRE 656 240 624 240
WIRE 496 256 496 240
WIRE 432 320 416 320
WIRE 432 352 432 320
WIRE 496 352 496 336
WIRE 496 352 432 352
WIRE 704 352 704 240
WIRE 704 352 496 352
WIRE 784 352 784 240
WIRE 784 352 704 352
WIRE 880 352 880 240
WIRE 880 352 784 352
WIRE 992 352 992 256
WIRE 992 352 880 352
WIRE 992 368 992 352
WIRE -32 400 -48 400
WIRE 64 400 48 400
WIRE 432 400 416 400
WIRE 464 400 432 400
WIRE 560 400 544 400
WIRE 640 400 624 400
WIRE 240 464 240 448
WIRE 432 496 432 400
WIRE 512 496 432 496
WIRE 640 496 576 496
FLAG -352 48 0
FLAG 240 464 0
FLAG -48 400 0
FLAG -32 80 0
FLAG 640 80 0
FLAG 640 400 0
FLAG 992 368 0
FLAG -352 -64 IN
FLAG 48 160 0
FLAG -160 48 0
FLAG -256 48 0
FLAG -64 48 0
FLAG 640 496 0
FLAG 992 160 OUT
SYMBOL voltage -352 -64 R0
SYMATTR InstName V1
SYMATTR Value 12
SYMBOL res 64 384 R90
WINDOW 0 0 56 VBottom 2
WINDOW 3 32 56 VTop 2
SYMATTR InstName R1
SYMATTR Value 162K
SYMBOL cap 48 64 R90
WINDOW 0 0 32 VBottom 2
WINDOW 3 32 32 VTop 2
SYMATTR InstName C1
SYMATTR Value .001µ
SYMBOL cap 576 96 R270
WINDOW 0 32 32 VTop 2
WINDOW 3 0 32 VBottom 2
SYMATTR InstName C2
SYMATTR Value 4.7µ
SYMBOL ind 448 176 R270
WINDOW 0 32 56 VTop 2
WINDOW 3 5 56 VBottom 2
SYMATTR InstName L1
SYMATTR Value .2µ
SYMBOL res 640 224 R90
WINDOW 0 0 56 VBottom 2
WINDOW 3 32 56 VTop 2
SYMATTR InstName R2
SYMATTR Value 14K
SYMBOL res 480 240 R0
SYMATTR InstName R3
SYMATTR Value 10K
SYMBOL cap 560 416 R270
WINDOW 3 0 32 VBottom 2
WINDOW 0 32 32 VTop 2
SYMATTR Value 220p
SYMATTR InstName C4
SYMBOL cap 768 176 R0
SYMATTR InstName C5
SYMATTR Value 330µ
SYMBOL res 976 160 R0
SYMATTR InstName Rload
SYMATTR Value .2
SYMBOL res 560 -16 R90
WINDOW 0 0 56 VBottom 2
WINDOW 3 32 56 VTop 2
SYMATTR InstName R4
SYMATTR Value 10K
SYMBOL PowerProducts\\LTC7151S 240 208 R0
SYMATTR InstName U1
SYMBOL cap -176 -48 R0
WINDOW 3 38 33 Left 2
WINDOW 123 23 56 Left 2
SYMATTR Value 10µ
SYMATTR Value2 x2
SYMATTR InstName C3
SYMATTR SpiceLine Rser=1m
SYMBOL cap -272 -48 R0
SYMATTR InstName C6
SYMATTR Value 180µ
SYMATTR SpiceLine Rser=20m
SYMBOL cap -80 -48 R0
SYMATTR InstName C7
SYMATTR Value 4.7µ
SYMATTR SpiceLine Rser=1m
SYMBOL cap 864 176 R0
SYMATTR InstName C8
SYMATTR Value 330µ
SYMBOL cap 688 176 R0
SYMATTR InstName C9
SYMATTR Value 100µ
SYMBOL cap 512 512 R270
WINDOW 0 32 32 VTop 2
WINDOW 3 0 32 VBottom 2
SYMATTR InstName C10
SYMATTR Value 10p
SYMBOL res 448 416 R270
WINDOW 0 32 56 VTop 2
WINDOW 3 0 56 VBottom 2
SYMATTR InstName R5
SYMATTR Value 40.2K
TEXT 664 432 Left 2 !.tran 1m startup\n.softstart 0 ; turn off internal softstart
TEXT 320 -80 Bottom 2 ;LTC7151S - 20V, 15A Synchronous Step-Down Silent Switcher 2 Regulator\nHigh Efficiency 15A Silent Switcher Buck Regulator \nInput: 3.1V to 20V     Output: 1.2V @ 15A, Fsw = 1MHz
TEXT -280 528 Left 2 ;Note:\n  If the simulation model is not found please update with the "Sync Release" command from the "Tools" menu.\n  It remains the customer's responsibility to verify proper and reliable operation in the actual application.\n  Component substitution and printed circuit board layout may significantly affect circuit performance or reliability.\n  Contact your local sales representative for assistance. This circuit is distributed to customers only for use with ADI parts.\n  Copyright © 2020 Analog Device Inc. All rights reserved.
