Version 4
SHEET 1 1784 908
WIRE 432 -80 16 -80
WIRE -352 -64 -448 -64
WIRE -240 -64 -352 -64
WIRE -128 -64 -240 -64
WIRE 32 -64 -128 -64
WIRE 160 -64 32 -64
WIRE 288 -64 160 -64
WIRE 416 -64 288 -64
WIRE -448 -48 -448 -64
WIRE -352 -48 -352 -64
WIRE -240 -48 -240 -64
WIRE -128 -48 -128 -64
WIRE 160 -48 160 -64
WIRE 288 -48 288 -64
WIRE 32 0 32 -64
WIRE 48 0 32 0
WIRE 416 0 416 -64
WIRE 416 0 400 0
WIRE -448 48 -448 32
WIRE -352 48 -352 16
WIRE -240 48 -240 16
WIRE -128 48 -128 16
WIRE -64 80 -80 80
WIRE 16 80 16 -80
WIRE 16 80 0 80
WIRE 48 80 16 80
WIRE 432 80 432 -80
WIRE 432 80 400 80
WIRE -128 160 -224 160
WIRE 48 160 -128 160
WIRE 576 160 400 160
WIRE 672 160 576 160
WIRE -224 176 -224 160
WIRE -128 176 -128 160
WIRE 576 176 576 160
WIRE 672 176 672 160
WIRE -224 272 -224 256
WIRE -128 272 -128 240
WIRE 576 272 576 240
WIRE 672 272 672 256
WIRE -32 320 -48 320
WIRE 48 320 32 320
WIRE 416 320 400 320
WIRE 496 320 480 320
WIRE -224 352 -224 336
WIRE 672 352 672 336
WIRE -496 400 -624 400
WIRE -400 400 -496 400
WIRE -304 400 -400 400
WIRE -224 400 -304 400
WIRE -176 400 -224 400
WIRE -48 400 -48 320
WIRE -48 400 -96 400
WIRE 48 400 -48 400
WIRE 496 400 496 320
WIRE 496 400 400 400
WIRE 544 400 496 400
WIRE 672 400 624 400
WIRE 768 400 672 400
WIRE 848 400 768 400
WIRE 944 400 848 400
WIRE 1040 400 944 400
WIRE -624 416 -624 400
WIRE -496 416 -496 400
WIRE -400 416 -400 400
WIRE -304 416 -304 400
WIRE -224 416 -224 400
WIRE 672 416 672 400
WIRE 768 416 768 400
WIRE 848 416 848 400
WIRE 944 416 944 400
WIRE 1040 416 1040 400
WIRE 48 480 -48 480
WIRE 496 480 400 480
WIRE -624 512 -624 496
WIRE -496 512 -496 480
WIRE -400 512 -400 480
WIRE -304 512 -304 480
WIRE -224 512 -224 496
WIRE -224 512 -304 512
WIRE -48 512 -48 480
WIRE -48 512 -224 512
WIRE 496 512 496 480
WIRE 672 512 672 496
WIRE 672 512 496 512
WIRE 768 512 768 480
WIRE 768 512 672 512
WIRE 848 512 848 480
WIRE 944 512 944 480
WIRE 1040 512 1040 496
WIRE -224 528 -224 512
WIRE 672 528 672 512
WIRE 128 544 128 528
WIRE 224 544 224 528
WIRE 320 544 320 528
WIRE -224 624 -224 608
WIRE 672 624 672 608
WIRE 128 640 128 624
FLAG -448 48 0
FLAG -80 80 0
FLAG -624 512 0
FLAG -400 512 0
FLAG -224 624 0
FLAG 1040 512 0
FLAG 848 512 0
FLAG 672 624 0
FLAG 128 640 0
FLAG 320 544 0
FLAG -448 -64 IN
FLAG -624 400 OUT1
FLAG 1040 400 OUT2
FLAG 224 544 0
FLAG -496 512 0
FLAG -224 352 0
FLAG 672 352 0
FLAG 944 512 0
FLAG -128 272 0
FLAG 576 272 0
FLAG -240 48 0
FLAG -128 48 0
FLAG -352 48 0
SYMBOL PowerProducts\\LTC7124 224 240 R0
SYMATTR InstName U1
SYMBOL voltage -448 -64 R0
SYMATTR InstName V1
SYMATTR Value 12
SYMBOL cap 0 64 R90
WINDOW 0 0 32 VBottom 2
WINDOW 3 32 32 VTop 2
SYMATTR InstName C1
SYMATTR Value 2.2µ
SYMBOL cap 32 304 R90
WINDOW 0 0 32 VBottom 2
WINDOW 3 32 32 VTop 2
SYMATTR InstName C2
SYMATTR Value .1µ
SYMBOL ind -80 416 M270
WINDOW 0 32 56 VTop 2
WINDOW 3 5 56 VBottom 2
SYMATTR InstName L1
SYMATTR Value 1.5µ
SYMATTR Value2 Rser=5m
SYMBOL cap -416 416 R0
SYMATTR InstName C3
SYMATTR Value 47µ
SYMATTR Value2 Rser=10m
SYMBOL cap -320 416 R0
SYMATTR InstName C4
SYMATTR Value 22p
SYMBOL res -240 512 R0
SYMATTR InstName R1
SYMATTR Value 619K
SYMBOL cap 416 336 R270
WINDOW 0 32 32 VTop 2
WINDOW 3 0 32 VBottom 2
SYMATTR InstName C5
SYMATTR Value .1µ
SYMBOL ind 528 416 R270
WINDOW 0 32 56 VTop 2
WINDOW 3 5 56 VBottom 2
SYMATTR InstName L2
SYMATTR Value 3.3µ
SYMATTR Value2 Rser=5m
SYMBOL cap 832 416 R0
SYMATTR InstName C6
SYMATTR Value 100µ
SYMATTR Value2 Rser=10m
SYMBOL cap 752 416 R0
SYMATTR InstName C7
SYMATTR Value 22p
SYMBOL res 656 512 R0
SYMATTR InstName R2
SYMATTR Value 196K
SYMBOL res 112 528 R0
SYMATTR InstName R3
SYMATTR Value 100K
SYMBOL cap -512 416 R0
SYMATTR InstName C8
SYMATTR Value 100µ
SYMATTR Value2 Rser=10m
SYMBOL res -240 160 R0
SYMATTR InstName R4
SYMATTR Value 14K
SYMBOL cap -240 272 R0
WINDOW 123 24 77 Left 2
SYMATTR InstName C9
SYMATTR Value 1000p
SYMBOL cap -144 176 R0
WINDOW 123 24 77 Left 2
SYMATTR InstName C10
SYMATTR Value 15p
SYMBOL res 656 160 R0
SYMATTR InstName R5
SYMATTR Value 12.4K
SYMBOL cap 656 272 R0
WINDOW 123 24 77 Left 2
SYMATTR InstName C11
SYMATTR Value 820p
SYMBOL cap 560 176 R0
WINDOW 123 24 77 Left 2
SYMATTR InstName C12
SYMATTR Value 10p
SYMBOL cap 928 416 R0
SYMATTR InstName C13
SYMATTR Value 47µ
SYMATTR Value2 Rser=10m
SYMBOL res -240 400 R0
SYMATTR InstName R6
SYMATTR Value 619K
SYMBOL res 656 400 R0
SYMATTR InstName R7
SYMATTR Value 619K
SYMBOL cap -256 -48 R0
WINDOW 3 39 32 Left 2
WINDOW 123 24 55 Left 2
SYMATTR Value 22µ
SYMATTR Value2 x2
SYMATTR InstName C14
SYMBOL cap -144 -48 R0
WINDOW 3 38 33 Left 2
WINDOW 123 25 54 Left 2
SYMATTR Value 10µ
SYMATTR Value2 x2
SYMATTR InstName C15
SYMBOL cap -368 -48 R0
WINDOW 3 38 31 Left 2
WINDOW 123 24 52 Left 2
SYMATTR Value 47µ
SYMATTR Value2 x2
SYMATTR InstName C16
SYMBOL res -640 400 R0
SYMATTR InstName Rload1
SYMATTR Value .36
SYMBOL res 1024 400 R0
SYMATTR InstName Rload2
SYMATTR Value .72
TEXT 840 600 Left 2 !.tran 2m startup
TEXT 240 -104 Bottom 2 ;LTC7124 - 17V, Dual 3.5A Synchronous Step-Down Regulator with Ultralow Quiescent Current\n1MHz Dual Step-Down Regulator with External Loop Compensation\nInput: 3.1V to 17V     Output: 1.2V @ 3.5A & 2.5V @ 3.5A
TEXT -432 648 Left 2 ;Note:\n  If the simulation model is not found please update with the "Sync Release" command from the "Tools" menu.\n  It remains the customer's responsibility to verify proper and reliable operation in the actual application.\n  Component substitution and printed circuit board layout may significantly affect circuit performance or reliability.\n  Contact your local sales representative for assistance. This circuit is distributed to customers only for use with ADI parts.\n  Copyright © 2018 Analog Devices Inc. All rights reserved.
TEXT -648 360 Left 2 ;1.2V
TEXT 1016 360 Left 2 ;2.5V
