Version 4
SHEET 1 1668 1240
WIRE -368 288 -464 288
WIRE -272 288 -368 288
WIRE -160 288 -272 288
WIRE -16 288 -160 288
WIRE 112 288 -16 288
WIRE -464 304 -464 288
WIRE -368 304 -368 288
WIRE -272 304 -272 288
WIRE -16 304 -16 288
WIRE 112 304 112 288
WIRE -160 352 -160 288
WIRE -128 352 -160 352
WIRE 240 352 224 352
WIRE 336 352 320 352
WIRE -464 400 -464 384
WIRE -368 400 -368 368
WIRE -272 400 -272 368
WIRE -208 432 -224 432
WIRE -128 432 -144 432
WIRE 336 432 336 352
WIRE 336 432 224 432
WIRE 352 432 336 432
WIRE 432 432 416 432
WIRE -128 512 -144 512
WIRE 256 512 224 512
WIRE 496 512 336 512
WIRE 592 512 496 512
WIRE 704 512 592 512
WIRE 592 528 592 512
WIRE 704 528 704 512
WIRE -128 592 -144 592
WIRE 304 592 224 592
WIRE 384 592 304 592
WIRE 400 592 384 592
WIRE 496 592 496 512
WIRE 496 592 480 592
WIRE 304 608 304 592
WIRE 592 624 592 592
WIRE 704 624 704 608
WIRE 704 624 592 624
WIRE 704 640 704 624
WIRE -128 672 -144 672
WIRE 256 672 224 672
WIRE 384 672 384 592
WIRE 400 672 384 672
WIRE 496 672 496 592
WIRE 496 672 464 672
WIRE 256 720 256 672
WIRE 304 720 304 688
WIRE 304 720 256 720
WIRE 592 720 592 624
WIRE 592 720 304 720
WIRE -224 752 -240 752
WIRE -128 752 -144 752
WIRE 288 752 224 752
WIRE 416 752 288 752
WIRE 288 768 288 752
WIRE 416 768 416 752
WIRE 48 816 48 800
WIRE 416 848 416 832
WIRE 288 864 288 848
WIRE 288 944 288 928
FLAG -464 400 0
FLAG 48 816 0
FLAG -240 752 0
FLAG -224 432 0
FLAG 432 432 0
FLAG 704 640 0
FLAG -464 288 IN
FLAG 288 944 0
FLAG 704 512 OUT
FLAG -368 400 0
FLAG -272 400 0
FLAG 416 848 0
SYMBOL voltage -464 288 R0
WINDOW 0 32 30 Left 2
SYMATTR InstName V1
SYMATTR Value 5
SYMBOL res -128 736 R90
WINDOW 0 0 56 VBottom 2
WINDOW 3 32 56 VTop 2
SYMATTR InstName R1
SYMATTR Value 169K
SYMATTR SpiceLine tol=1 pwr=0.1
SYMBOL cap -144 416 R90
WINDOW 0 0 32 VBottom 2
WINDOW 3 32 32 VTop 2
SYMATTR InstName C1
SYMATTR Value 100p
SYMBOL cap 352 448 R270
WINDOW 0 32 32 VTop 2
WINDOW 3 0 32 VBottom 2
SYMATTR InstName C2
SYMATTR Value 4.7µ
SYMBOL ind 240 528 R270
WINDOW 0 32 56 VTop 2
WINDOW 3 5 56 VBottom 2
SYMATTR InstName L1
SYMATTR Value .33µ
SYMATTR SpiceLine Ipk=27 Rser=0.00037 Rpar=69.73 Cpar=991f mfg="Würth Elektronik" pn="744308033 WE-HCM 1070"
SYMBOL res 496 576 R90
WINDOW 0 0 56 VBottom 2
WINDOW 3 28 56 VTop 2
SYMATTR InstName R2
SYMATTR Value 56.2K
SYMATTR SpiceLine tol=1 pwr=0.1
SYMBOL res 288 592 R0
SYMATTR InstName R3
SYMATTR Value 10K
SYMBOL cap 576 528 R0
WINDOW 40 24 58 Left 2
WINDOW 3 41 32 Left 2
SYMATTR SpiceLine2 x2
SYMATTR Value 62µ
SYMATTR InstName C3
SYMATTR SpiceLine V=6.3 Irms=10.4 Rser=0.00317263 Lser=0
SYMBOL PowerProducts\\LTC7151S 48 560 R0
SYMATTR InstName U1
SYMBOL res 272 752 R0
SYMATTR InstName R4
SYMATTR Value 6.8K
SYMBOL cap 400 768 R0
SYMATTR InstName C4
SYMATTR Value 4.7p
SYMBOL cap 272 864 R0
SYMATTR InstName C5
SYMATTR Value 220p
SYMBOL res 336 336 R90
WINDOW 0 0 56 VBottom 2
WINDOW 3 32 56 VTop 2
SYMATTR InstName R5
SYMATTR Value 100K
SYMBOL cap 464 656 R90
WINDOW 0 3 34 VBottom 2
WINDOW 3 30 32 VTop 2
SYMATTR InstName C6
SYMATTR Value 100p
SYMBOL cap -288 304 R0
SYMATTR InstName C7
SYMATTR Value 10µ
SYMATTR SpiceLine V=25 Irms=7.16 Rser=0.00732742 Lser=0 mfg="KEMET" pn="C1206C106K3PAC" type="X5R"
SYMBOL cap -384 304 R0
SYMATTR InstName C8
SYMATTR Value 4.7µ
SYMATTR SpiceLine V=25 Irms=9.88 Rser=0.00384339 Lser=0 mfg="KEMET" pn="C0805C475K3PAC" type="X5R"
SYMBOL res 688 512 R0
SYMATTR InstName Rload
SYMATTR Value .22
TEXT 176 200 Center 2 ;LTC7151S - 20V, 15A Synchronous Step-Down Silent Switcher 2 Regulator\nHigh Efficiency Synchronous Buck Regulator\nInput: 4V to 20V     Output: 3.3V @ 15A, Fsw = 1MHz
TEXT 520 824 Left 2 !.tran .5m startup
TEXT -552 952 Left 2 ;Note:\n  If the simulation model is not found please update with the "Sync Release" command from the "Tools" menu.\n  It remains the customer's responsibility to verify proper and reliable operation in the actual application.\n  Component substitution and printed circuit board layout may significantly affect circuit performance or reliability.\n  Small SS capacitor used to reduce simulation time. Refer to the data sheet for selecting the soft-start capacitor value.\n  Contact your local sales representative for assistance. This circuit is distributed to customers only for use with ADI parts.\n  Copyright © 2020 Analog Device Inc. All rights reserved.
TEXT 576 544 Right 2 ;Cnom\n100u
