Version 4
SHEET 1 1304 844
WIRE -240 -112 -256 -112
WIRE -160 -112 -240 -112
WIRE -64 -112 -160 -112
WIRE 16 -112 -64 -112
WIRE 96 -112 16 -112
WIRE 352 -112 96 -112
WIRE 432 -112 352 -112
WIRE -256 -96 -256 -112
WIRE -160 -96 -160 -112
WIRE -64 -96 -64 -112
WIRE 96 -64 96 -112
WIRE 272 -64 272 -80
WIRE 352 -64 352 -112
WIRE -256 0 -256 -16
WIRE -160 0 -160 -32
WIRE -64 0 -64 -32
WIRE 16 0 16 -112
WIRE 32 0 16 0
WIRE 432 0 432 -112
WIRE 432 0 416 0
WIRE -240 192 -368 192
WIRE -160 192 -240 192
WIRE -64 192 -160 192
WIRE 32 192 -64 192
WIRE 480 192 416 192
WIRE 608 192 480 192
WIRE 704 192 608 192
WIRE 784 192 704 192
WIRE -368 208 -368 192
WIRE -240 208 -240 192
WIRE -160 208 -160 192
WIRE -64 208 -64 192
WIRE 480 208 480 192
WIRE 608 208 608 192
WIRE 704 208 704 192
WIRE 784 208 784 192
WIRE -64 288 -64 272
WIRE 32 288 -64 288
WIRE 480 288 480 272
WIRE 480 288 416 288
WIRE -368 304 -368 288
WIRE -240 304 -240 272
WIRE -160 304 -160 272
WIRE -64 304 -64 288
WIRE 480 304 480 288
WIRE 608 304 608 272
WIRE 704 304 704 272
WIRE 784 304 784 288
WIRE -64 400 -64 384
WIRE 480 400 480 384
WIRE -48 480 -64 480
WIRE 32 480 16 480
WIRE 432 480 416 480
WIRE 512 480 496 480
WIRE 160 560 160 544
FLAG 160 560 0
FLAG -256 0 0
FLAG 480 400 0
FLAG -64 400 0
FLAG -240 304 0
FLAG -368 304 0
FLAG 608 304 0
FLAG 784 304 0
FLAG 784 192 OUT2
FLAG -368 192 OUT1
FLAG -240 -112 IN
FLAG -160 0 0
FLAG -64 0 0
FLAG -160 304 0
FLAG 704 304 0
FLAG -64 480 0
FLAG 512 480 0
FLAG 272 -80 0
SYMBOL voltage -256 -112 R0
SYMATTR InstName V1
SYMATTR Value 12
SYMBOL res 464 288 R0
SYMATTR InstName R1
SYMATTR Value 13.3K
SYMBOL res -80 288 R0
SYMATTR InstName R2
SYMATTR Value 8.25K
SYMBOL cap -256 208 R0
SYMATTR InstName C1
SYMATTR Value 47µ
SYMATTR SpiceLine V=16 Rser=70m
SYMBOL res -384 192 R0
SYMATTR InstName Rload1
SYMATTR Value 2.5
SYMBOL res 768 192 R0
SYMATTR InstName Rload2
SYMATTR Value 1.65
SYMBOL cap -80 -96 R0
WINDOW 123 24 58 Left 2
WINDOW 3 37 32 Left 2
SYMATTR Value2 x2
SYMATTR Value 10µ
SYMATTR InstName C4
SYMATTR SpiceLine V=16 Irms=0 Rser=5m Lser=0
SYMBOL cap 16 464 R90
WINDOW 0 0 32 VBottom 2
WINDOW 3 32 32 VTop 2
SYMATTR InstName C7
SYMATTR Value .001µ
SYMBOL cap 432 464 M90
WINDOW 0 0 32 VBottom 2
WINDOW 3 32 32 VTop 2
SYMATTR InstName C8
SYMATTR Value .001µ
SYMBOL PowerProducts\\LTM4622A 224 240 R0
SYMATTR InstName U2
SYMBOL cap -176 208 R0
WINDOW 123 24 58 Left 2
WINDOW 3 37 32 Left 2
SYMATTR Value2 x2
SYMATTR Value 4.7µ
SYMATTR InstName C5
SYMATTR SpiceLine V=16 Rser=5m
SYMBOL cap 592 208 R0
WINDOW 123 24 58 Left 2
WINDOW 3 37 32 Left 2
SYMATTR Value2 x2
SYMATTR Value 4.7µ
SYMATTR InstName C2
SYMATTR SpiceLine V=16 Rser=5m
SYMBOL cap 688 208 R0
SYMATTR InstName C6
SYMATTR Value 47µ
SYMATTR SpiceLine V=16 Rser=70m
SYMBOL cap -80 208 R0
SYMATTR InstName C9
SYMATTR Value 10p
SYMBOL cap 464 208 R0
SYMATTR InstName C10
SYMATTR Value 10p
SYMBOL cap -176 -96 R0
WINDOW 123 24 58 Left 2
WINDOW 3 37 32 Left 2
SYMATTR Value2 x2
SYMATTR Value 22µ
SYMATTR InstName C3
SYMATTR SpiceLine V=16 Irms=0 Rser=5m Lser=0
TEXT 624 480 Left 2 !.tran .7m startup
TEXT -376 576 Left 2 ;Note:\n  If the simulation model is not found please update with the "Sync Release" command from the "Tools" menu.\n  It remains the customer's responsibility to verify proper and reliable operation in the actual application.\n  Component substitution and printed circuit board layout may significantly affect circuit performance or reliability\n  Contact your local sales representative for assistance. This circuit is distributed to customers only for use with LTC parts\n  Copyright © 2018 Analog Devices Inc. All rights reserved.
TEXT 248 -144 Bottom 2 ;LTM4622A - Dual Ultrathin 2A or Single 4A Step-Down DC/DC µModule Regulator\nDual Step-Down µModule Regulator\nInput: 4V to 20V     Outputs: 5V @ 2A & 3.3V @ 2A
