Version 4
SHEET 1 2504 1848
WIRE -6208 -5312 -6288 -5312
WIRE -6000 -5312 -6208 -5312
WIRE -5904 -5312 -6000 -5312
WIRE -5216 -5312 -5904 -5312
WIRE -6288 -5296 -6288 -5312
WIRE -5904 -5264 -5904 -5312
WIRE -5712 -5264 -5712 -5280
WIRE -5616 -5264 -5616 -5280
WIRE -5520 -5264 -5520 -5296
WIRE -6288 -5200 -6288 -5216
WIRE -6000 -5200 -6000 -5312
WIRE -5968 -5200 -6000 -5200
WIRE -5216 -5200 -5216 -5312
WIRE -5216 -5200 -5456 -5200
WIRE -5968 -5008 -6160 -5008
WIRE -5264 -5008 -5456 -5008
WIRE -5136 -5008 -5264 -5008
WIRE -5008 -5008 -5136 -5008
WIRE -4880 -5008 -5008 -5008
WIRE -5136 -4992 -5136 -5008
WIRE -5008 -4992 -5008 -5008
WIRE -4880 -4992 -4880 -5008
WIRE -6160 -4912 -6160 -5008
WIRE -5968 -4912 -6160 -4912
WIRE -5264 -4912 -5264 -5008
WIRE -5264 -4912 -5456 -4912
WIRE -5136 -4896 -5136 -4928
WIRE -5008 -4896 -5008 -4928
WIRE -4880 -4880 -4880 -4912
WIRE -5968 -4816 -5984 -4816
WIRE -5440 -4816 -5456 -4816
WIRE -5968 -4720 -6112 -4720
WIRE -5312 -4720 -5456 -4720
WIRE -5968 -4624 -6064 -4624
WIRE -5360 -4624 -5456 -4624
WIRE -5968 -4240 -6016 -4240
WIRE -5408 -4240 -5456 -4240
WIRE -5904 -4144 -5904 -4176
WIRE -5904 -4144 -6272 -4144
WIRE -5520 -4144 -5520 -4176
WIRE -5520 -4144 -5904 -4144
WIRE -5616 -4112 -5616 -4176
WIRE -5168 -4112 -5616 -4112
WIRE -6160 -4064 -6160 -4912
WIRE -5264 -4064 -5264 -4912
WIRE -5264 -4064 -6160 -4064
WIRE -6208 -4016 -6208 -5312
WIRE -5904 -4016 -6208 -4016
WIRE -5904 -3984 -5904 -4016
WIRE -5712 -3984 -5712 -4000
WIRE -5616 -3984 -5616 -4000
WIRE -6208 -3920 -6208 -4016
WIRE -5968 -3920 -6208 -3920
WIRE -5216 -3920 -5216 -5200
WIRE -5216 -3920 -5456 -3920
WIRE -6160 -3728 -6160 -4064
WIRE -5968 -3728 -6160 -3728
WIRE -5264 -3728 -5264 -4064
WIRE -5264 -3728 -5456 -3728
WIRE -6160 -3632 -6160 -3728
WIRE -5968 -3632 -6160 -3632
WIRE -5264 -3632 -5264 -3728
WIRE -5264 -3632 -5456 -3632
WIRE -5968 -3536 -5984 -3536
WIRE -5440 -3536 -5456 -3536
WIRE -6112 -3440 -6112 -4720
WIRE -5968 -3440 -6112 -3440
WIRE -5312 -3440 -5312 -4720
WIRE -5312 -3440 -5456 -3440
WIRE -6208 -3344 -6224 -3344
WIRE -6064 -3344 -6064 -4624
WIRE -6064 -3344 -6144 -3344
WIRE -5968 -3344 -6064 -3344
WIRE -5360 -3344 -5360 -4624
WIRE -5360 -3344 -5456 -3344
WIRE -6016 -2960 -6016 -4240
WIRE -5968 -2960 -6016 -2960
WIRE -5408 -2960 -5408 -4240
WIRE -5408 -2960 -5456 -2960
WIRE -5808 -2880 -5808 -2896
WIRE -6272 -2864 -6272 -4144
WIRE -5904 -2864 -5904 -2896
WIRE -5904 -2864 -6272 -2864
WIRE -5520 -2864 -5520 -2896
WIRE -5520 -2864 -5904 -2864
WIRE -5904 -2848 -5904 -2864
WIRE -5616 -2848 -5616 -2896
WIRE -5168 -2848 -5168 -4112
WIRE -5168 -2848 -5616 -2848
WIRE -5616 -2832 -5616 -2848
WIRE -5904 -2736 -5904 -2768
WIRE -5712 -2736 -5712 -2896
WIRE -5712 -2736 -5904 -2736
WIRE -5616 -2736 -5616 -2752
WIRE -5616 -2736 -5712 -2736
WIRE -6016 -2704 -6016 -2960
WIRE -5408 -2704 -5408 -2960
WIRE -5408 -2704 -6016 -2704
WIRE -6064 -2672 -6064 -3344
WIRE -5360 -2672 -5360 -3344
WIRE -5360 -2672 -6064 -2672
WIRE -6112 -2640 -6112 -3440
WIRE -5312 -2640 -5312 -3440
WIRE -5312 -2640 -6112 -2640
FLAG -6288 -5200 0
FLAG -5712 -5280 0
FLAG -5616 -5280 0
FLAG -4880 -4880 0
FLAG -6224 -3344 0
FLAG -5712 -4000 0
FLAG -4880 -5008 OUT
FLAG -6288 -5312 IN
FLAG -5136 -4896 0
FLAG -5008 -4896 0
FLAG -5440 -4816 0
FLAG -5984 -4816 0
FLAG -5984 -3536 0
FLAG -5616 -4000 0
FLAG -5440 -3536 0
SYMBOL voltage -6288 -5312 R0
SYMATTR InstName V1
SYMATTR Value 12
SYMBOL cap -5024 -4992 R0
WINDOW 123 28 57 Left 2
WINDOW 3 42 35 Left 2
SYMATTR Value2 x38
SYMATTR Value 100µ
SYMATTR InstName C3
SYMATTR SpiceLine Rser=1m
SYMBOL cap -6208 -3360 M90
WINDOW 0 0 32 VBottom 2
WINDOW 3 32 32 VTop 2
SYMATTR InstName C6
SYMATTR Value .015µ
SYMBOL res -5632 -2848 R0
SYMATTR InstName R1
SYMATTR Value 4.99K
SYMBOL res -5920 -2864 R0
SYMATTR InstName R2
SYMATTR Value 10K
SYMBOL current -4880 -4992 R0
WINDOW 123 24 101 Left 2
SYMATTR InstName I1
SYMATTR Value PULSE(100 150 1.4m 1u 1u 0.2m 2m)
SYMATTR SpiceLine load
SYMBOL PowerProducts\\LTM4700 -5712 -4720 R0
SYMATTR SpiceLine VIN_ON=5.5 VIN_OFF=5 Vout_0=1 Vout_1=1 Ilim0_range=1 Ilim1_range=1 OC_limit0=1 OC_limit1=1 Mode_ll=1 Fault_response=0 Retry_delay=.1m gm0=3.69m gm1=3.69m Rth0=11K Rth1=11K Sync=0
SYMATTR SpiceLine2 Freq=350K PHs_0=0 PHs_1=180 Ton0_delay=.3m Ton0_rise=.5m Ton1_delay=.3m Ton1_rise=.5m Toff0_delay=.2m Toff0_fall=.3m Toff1_delay=.2m Toff1_fall=.3m Vout0_range=1 Vout1_range=1
SYMATTR InstName U1
SYMBOL PowerProducts\\LTM4700 -5712 -3440 R0
SYMATTR SpiceLine VIN_ON=5.5 VIN_OFF=5 Vout_0=1 Vout_1=1 Ilim0_range=1 Ilim1_range=1 OC_limit0=1 OC_limit1=1 Mode_ll=1 Fault_response=0 Retry_delay=.1m gm0=3.69m gm1=3.69m Rth0=11K Rth1=11K Sync=1
SYMATTR SpiceLine2 Freq=350K PHs_0=90 PHs_1=270 Ton0_delay=.3m Ton0_rise=.5m Ton1_delay=.3m Ton1_rise=.5m Toff0_delay=.2m Toff0_fall=.3m Toff1_delay=.2m Toff1_fall=.3m Vout0_range=1 Vout1_range=1
SYMATTR InstName U2
SYMBOL cap -5152 -4992 R0
WINDOW 123 24 59 Left 2
WINDOW 3 39 33 Left 2
SYMATTR Value2 x16
SYMATTR Value 470µ
SYMATTR InstName C1
SYMATTR SpiceLine Rser=3m
TEXT -5048 -4784 Left 4 ;**RIGHT CLICK ON EACH DEVICE SYMBOL TO REVIEW THE FOLLOWING PARAMETERS**\n \nPlease read the following notes carefully, since the model presents different user interface\nthan the real part does.\n \n(1) All PMBus communication and memory address related functions and pins are not modeled. \n \n(2) Changes to all parameter values during the simulation running will not be in effect, unless the\nsimulation is stopped and restarted. This is different from the operation of the part, which will\n respond to the commanded changes while running. \n \n(3) Share_clk is not modeled. The default time reference of LTspice is used as the common time \nbase for all time related parameters.\n \n(4) The following parameters can be defined, by right-clicking the symbol of LTM4700. Different \nnomenclature from the datasheet is adopted here. If any value of these parameters are set beyond \nthe scope discribed in the datasheet, the resulting simulation outcomes are not meaningful.\n \n     VIN_ON & VIN_OFF -- in volts, set the unit start/stop input voltages;\n     Freq -- in Hz, sets switching frequency as one of values of 250K, 350K, \n                425K, 500K, 575K, 650K, 750K, 1000K. FSWPH_CFG pin needs to float \n                (or short to VDD25), to make the value be in effect;\n     PHs_0 & PHs_1 -- in degree,  set phase angle related to SYNC signal. \n                Certain combinations are restricted as in datasheet. FSWPH_CFG \n                pin needs to float (or short to VDD25), to make the value be in effect;\n     Ton0_delay & Ton0_rise; Ton1_delay & Ton1_rise -- in sec, set delay and soft-start timers for \n                channel0 and channel1. Initialization time is not modeled;\n     Toff0_delay & Toff0_fall; Toff1_delay & Toff1_fall -- in sec, set delay and soft-off timers for \n                channel0 and channel1;\n     Vout_0 & Vout_1 -- in volt, set output voltages respectively;\n     Vout0_range & Vout1_range -- set maximum output range, with value 0\n                                                      for 4.096V (CH0) and 5.5V (CH1); value 1\n                                                      for 2.75V\n     Ilim0_range & Ilim1_range -- set maximum sensed peak current range, with value 0\n                           for low (45.14mV), and 1 for high (81.25mV);\n     OC_limit0 & OC_limit1 -- set ratio of peak current limit to the maximum value defined\n                      by Ilimit_range. It must be one of values: 0.5, 0.572, 0.642, \n                      0.714, 0.786, 0.858, 0.928, 1;\n     Mode_II -- sets light load operation mode: 0 for discontinuous, 1 for forced continuous;\n     Fault_response -- sets the response mode of the unit to occuring faults:\n                                 0 for ignore, 1 for latch up, 2 for Hiccup after Retry_delay time;\n     Retry_delay -- in sec, sets the timer before the unit turns on after a fault;\n     gm -- transconductance of the error amplifier. It must be between 1m mho and 5.73m mho;\n     Rth -- Compensation resistor. It must be set between 0k ohms and 62k ohms;\n     Sync - value 0 for Master, value 1 for Slave. Set to 0 for standalone operation.
TEXT -5064 -2736 Right 2 !.tran 2m startup
TEXT -5672 -5360 Bottom 4 ;LTM4700 - Dual 50A or Single 100A µModule Regulator with Digital Power System Management\nPolyphase µModule Buck Regulator with Digital Interface for Control & Monitoring\nInput: 4.5V to 16V     Output: 1V @ 200A
TEXT -6720 -2640 Left 4 ;Notes: \n  If the simulation model is not found please update with the "Sync Release" command from the "Tools" menu.\n  It remains the customer's responsibility to verify proper and reliable operation in the actual application.\n  Component substitution and printed circuit board layout may significantly affect circuit performance or reliability.\n  Contact your local sales representative for assistance. This circuit is distributed to customers only for use with LTC parts.\n  Copyright © 2019 Analog Devices Inc.  All rights reserved.
