Version 4
SHEET 1 1496 1260
WIRE -304 -400 -304 -416
WIRE -672 -320 -768 -320
WIRE -576 -320 -672 -320
WIRE -480 -320 -576 -320
WIRE -432 -320 -480 -320
WIRE -416 -320 -432 -320
WIRE -304 -320 -304 -336
WIRE -304 -320 -336 -320
WIRE -240 -320 -304 -320
WIRE 1184 -320 896 -320
WIRE 1280 -320 1184 -320
WIRE -768 -304 -768 -320
WIRE -672 -304 -672 -320
WIRE -576 -304 -576 -320
WIRE 1184 -304 1184 -320
WIRE 1280 -304 1280 -320
WIRE -480 -224 -480 -320
WIRE -432 -224 -432 -320
WIRE -272 -224 -432 -224
WIRE -240 -224 -272 -224
WIRE 912 -224 896 -224
WIRE 1008 -224 992 -224
WIRE -768 -208 -768 -224
WIRE -672 -208 -672 -240
WIRE -576 -208 -576 -240
WIRE 1184 -208 1184 -240
WIRE 1280 -208 1280 -224
WIRE -480 -128 -480 -144
WIRE -304 -128 -480 -128
WIRE -240 -128 -304 -128
WIRE 928 -128 896 -128
WIRE 1008 -128 992 -128
WIRE -480 -112 -480 -128
WIRE -272 -32 -272 -224
WIRE -240 -32 -272 -32
WIRE 1184 -32 896 -32
WIRE 1280 -32 1184 -32
WIRE -480 -16 -480 -32
WIRE 1184 -16 1184 -32
WIRE 1280 -16 1280 -32
WIRE -272 64 -272 -32
WIRE -240 64 -272 64
WIRE 912 64 896 64
WIRE 1008 64 992 64
WIRE 1184 80 1184 48
WIRE 1280 80 1280 64
WIRE -304 160 -304 -128
WIRE -240 160 -304 160
WIRE 928 160 896 160
WIRE 1008 160 992 160
WIRE -272 256 -272 64
WIRE -240 256 -272 256
WIRE 960 256 896 256
WIRE 1184 256 960 256
WIRE 1280 256 1184 256
WIRE 960 272 960 256
WIRE 1184 272 1184 256
WIRE 1280 272 1280 256
WIRE -272 352 -272 256
WIRE -240 352 -272 352
WIRE 960 352 960 336
WIRE 960 352 896 352
WIRE 1024 352 960 352
WIRE 1120 352 1104 352
WIRE 1184 368 1184 336
WIRE 1280 368 1280 352
WIRE -304 448 -304 160
WIRE -240 448 -304 448
WIRE 928 448 896 448
WIRE 1008 448 992 448
WIRE -272 544 -272 352
WIRE -240 544 -272 544
WIRE 960 544 896 544
WIRE 1184 544 960 544
WIRE 1280 544 1184 544
WIRE 960 560 960 544
WIRE 1184 560 1184 544
WIRE 1280 560 1280 544
WIRE -272 640 -272 544
WIRE -240 640 -272 640
WIRE 960 640 960 624
WIRE 960 640 896 640
WIRE 1024 640 960 640
WIRE 1120 640 1104 640
WIRE 1184 656 1184 624
WIRE 1280 656 1280 640
WIRE -304 736 -304 448
WIRE -240 736 -304 736
WIRE 928 736 896 736
WIRE 1008 736 992 736
WIRE -176 816 -176 800
WIRE -64 816 -64 800
WIRE 48 816 48 800
WIRE 160 816 160 800
WIRE 272 816 272 800
WIRE 832 816 832 800
FLAG -176 816 0
FLAG 832 816 0
FLAG -64 816 0
FLAG 48 816 0
FLAG 160 816 0
FLAG 272 816 0
FLAG -768 -208 0
FLAG -480 -16 0
FLAG -768 -320 IN
FLAG 1184 -208 0
FLAG 1280 -208 0
FLAG 1008 -224 0
FLAG 1008 -128 0
FLAG 1280 -320 OUT1
FLAG 1184 80 0
FLAG 1280 80 0
FLAG 1008 64 0
FLAG 1008 160 0
FLAG 1280 -32 OUT2
FLAG 1184 368 0
FLAG 1280 368 0
FLAG 1120 352 0
FLAG 1008 448 0
FLAG 1280 256 OUT3
FLAG 1184 656 0
FLAG 1280 656 0
FLAG 1120 640 0
FLAG 1008 736 0
FLAG 1280 544 OUT4
FLAG -672 -208 0
FLAG -576 -208 0
FLAG -304 -416 0
SYMBOL voltage -768 -320 R0
WINDOW 123 24 126 Left 2
WINDOW 39 24 111 Left 2
WINDOW 0 31 23 Left 2
SYMATTR InstName V1
SYMATTR Value 12
SYMBOL res -496 -240 R0
SYMATTR InstName R1
SYMATTR Value 150K
SYMBOL res -496 -128 R0
SYMATTR InstName R2
SYMATTR Value 100K
SYMBOL cap 1168 -304 R0
WINDOW 123 26 62 Left 2
WINDOW 3 38 36 Left 2
SYMATTR Value2 x2
SYMATTR Value 47µ
SYMATTR InstName C1
SYMATTR SpiceLine V=6.3 Irms=0 Rser=0.002 Lser=0 mfg="TDK" pn="C4532X5ROJ47@M" type="X5R"
SYMBOL res 1264 -320 R0
SYMATTR InstName Rload1
SYMATTR Value 1.1
SYMBOL res 896 -208 R270
WINDOW 0 32 56 VTop 2
WINDOW 3 0 56 VBottom 2
SYMATTR InstName R3
SYMATTR Value 13.3K
SYMBOL cap 928 -112 R270
WINDOW 0 32 32 VTop 2
WINDOW 3 0 32 VBottom 2
SYMATTR InstName C2
SYMATTR Value .001µ
SYMBOL res 1264 -32 R0
SYMATTR InstName Rload2
SYMATTR Value .833
SYMBOL res 896 80 R270
WINDOW 0 32 56 VTop 2
WINDOW 3 0 56 VBottom 2
SYMATTR InstName R4
SYMATTR Value 19.1K
SYMBOL cap 928 176 R270
WINDOW 0 32 32 VTop 2
WINDOW 3 0 32 VBottom 2
SYMATTR InstName C4
SYMATTR Value .001µ
SYMBOL res 1264 256 R0
SYMATTR InstName Rload3
SYMATTR Value .5
SYMBOL res 1008 368 R270
WINDOW 0 32 56 VTop 2
WINDOW 3 0 56 VBottom 2
SYMATTR InstName R5
SYMATTR Value 40.2K
SYMBOL cap 928 464 R270
WINDOW 0 32 32 VTop 2
WINDOW 3 0 32 VBottom 2
SYMATTR InstName C6
SYMATTR Value .001µ
SYMBOL res 1264 544 R0
SYMATTR InstName Rload4
SYMATTR Value .4
SYMBOL res 1008 656 R270
WINDOW 0 32 56 VTop 2
WINDOW 3 0 56 VBottom 2
SYMATTR InstName R6
SYMATTR Value 60.4K
SYMBOL cap 928 752 R270
WINDOW 0 32 32 VTop 2
WINDOW 3 0 32 VBottom 2
SYMATTR InstName C8
SYMATTR Value .001µ
SYMBOL cap 1168 -16 R0
WINDOW 123 28 62 Left 2
WINDOW 3 38 36 Left 2
SYMATTR Value2 x2
SYMATTR Value 47µ
SYMATTR InstName C3
SYMATTR SpiceLine V=6.3 Irms=0 Rser=0.002 Lser=0 mfg="TDK" pn="C4532X5ROJ47@M" type="X5R"
SYMBOL cap 1168 272 R0
WINDOW 123 31 63 Left 2
WINDOW 3 38 36 Left 2
SYMATTR Value2 x2
SYMATTR Value 47µ
SYMATTR InstName C5
SYMATTR SpiceLine V=6.3 Irms=0 Rser=0.002 Lser=0 mfg="TDK" pn="C4532X5ROJ47@M" type="X5R"
SYMBOL cap 1168 560 R0
WINDOW 123 31 61 Left 2
WINDOW 3 38 36 Left 2
SYMATTR Value2 x2
SYMATTR Value 47µ
SYMATTR InstName C7
SYMATTR SpiceLine V=6.3 Irms=0 Rser=0.002 Lser=0 mfg="TDK" pn="C4532X5ROJ47@M" type="X5R"
SYMBOL polcap -688 -304 R0
SYMATTR InstName C10
SYMATTR Value 33µ
SYMATTR SpiceLine Rser=50m
SYMBOL cap -592 -304 R0
WINDOW 123 27 59 Left 2
WINDOW 3 38 36 Left 2
SYMATTR Value2 x4
SYMATTR Value 22µ
SYMATTR InstName C11
SYMATTR SpiceLine V=6.3 Irms=0 Rser=0.002 Lser=0
SYMBOL cap 944 272 R0
SYMATTR InstName C9
SYMATTR Value 100p
SYMBOL cap 944 560 R0
SYMATTR InstName C12
SYMATTR Value 100p
SYMBOL res -320 -336 R90
WINDOW 0 0 56 VBottom 2
WINDOW 3 32 56 VTop 2
SYMATTR InstName R7
SYMATTR Value 1
SYMBOL cap -320 -336 M180
WINDOW 0 24 56 Left 2
WINDOW 3 24 8 Left 2
SYMATTR InstName C13
SYMATTR Value 1µ
SYMBOL PowerProducts\\LTM4643 336 208 R0
SYMATTR InstName U2
TEXT 1176 744 Left 2 !.tran .5m startup
TEXT 272 -408 Bottom 2 ;LTM4643 - Ultrathin Quad DC/DC µModule Regulator with Configurable 3A Output Array\nQuad 3A Buck µModule Regulator\nInput: 4V to 20V     Outputs: 3.3V @ 3A, 2.5V @ 3A, 1.5V @ 3A, 1.2V @ 3A
TEXT -352 840 Left 2 ;Note:\n  If the simulation model is not found please update with the "Sync Release" command from the "Tools" menu.\n  It remains the customer's responsibility to verify proper and reliable operation in the actual application.\n  Component substitution and printed circuit board layout may significantly affect circuit performance or reliability\n  Contact your local sales representative for assistance. This circuit is distributed to customers only for use with LTC parts\n  Copyright © 2018 Analog Devices Inc. All rights reserved.
