Version 4
SHEET 1 3120 1720
WIRE 32 -432 -480 -432
WIRE 160 -432 32 -432
WIRE 288 -432 160 -432
WIRE -480 -416 -480 -432
WIRE 160 -416 160 -432
WIRE -576 -320 -656 -320
WIRE -352 -320 -576 -320
WIRE 256 -320 -352 -320
WIRE -656 -304 -656 -320
WIRE -480 -288 -480 -336
WIRE -352 -288 -352 -320
WIRE 32 -288 32 -432
WIRE 160 -288 160 -336
WIRE -576 -224 -576 -320
WIRE -560 -224 -576 -224
WIRE 256 -224 256 -320
WIRE 256 -224 240 -224
WIRE -656 -208 -656 -224
WIRE -784 -32 -1248 -32
WIRE -672 -32 -784 -32
WIRE -576 -32 -672 -32
WIRE -560 -32 -576 -32
WIRE 256 -32 240 -32
WIRE 336 -32 256 -32
WIRE 448 -32 336 -32
WIRE 576 -32 448 -32
WIRE -1248 -16 -1248 -32
WIRE -784 -16 -784 -32
WIRE -672 -16 -672 -32
WIRE 336 -16 336 -32
WIRE 448 -16 448 -32
WIRE 576 -16 576 -32
WIRE -576 64 -576 -32
WIRE -560 64 -576 64
WIRE 256 64 256 -32
WIRE 256 64 240 64
WIRE -1248 80 -1248 64
WIRE -784 80 -784 48
WIRE -672 80 -672 48
WIRE 336 80 336 48
WIRE 448 80 448 48
WIRE 576 80 576 64
WIRE -672 160 -704 160
WIRE -592 160 -608 160
WIRE -768 256 -784 256
WIRE -672 256 -688 256
WIRE -592 256 -592 160
WIRE -592 256 -608 256
WIRE -560 256 -592 256
WIRE 256 256 240 256
WIRE 304 448 240 448
WIRE 384 448 368 448
WIRE 480 448 464 448
WIRE -480 624 -480 608
WIRE -352 624 -352 608
WIRE -96 624 -96 608
WIRE -480 720 -480 704
WIRE 288 720 288 -432
WIRE 288 720 -480 720
FLAG 576 80 0
FLAG 576 -32 OUT0
FLAG -656 -320 IN
FLAG -656 -208 0
FLAG -1248 80 0
FLAG -1248 -32 OUT1
FLAG -96 624 0
FLAG -704 160 0
FLAG 480 448 0
FLAG -784 80 0
FLAG -672 80 0
FLAG -784 256 0
FLAG 336 80 0
FLAG 448 80 0
FLAG -352 624 0
FLAG 256 256 0
SYMBOL voltage -656 -320 R0
WINDOW 123 24 138 Left 2
WINDOW 39 24 117 Left 2
SYMATTR InstName V1
SYMATTR Value 12
SYMBOL polcap 320 -16 R0
WINDOW 123 29 53 Left 2
WINDOW 3 36 33 Left 2
SYMATTR Value2 x2
SYMATTR Value 330µ
SYMATTR InstName C5
SYMATTR SpiceLine Rser=18m
SYMATTR Description Capacitor
SYMATTR Type cap
SYMBOL polcap -688 -16 R0
WINDOW 123 29 59 Left 2
WINDOW 3 39 34 Left 2
SYMATTR Value2 x2
SYMATTR Value 330µ
SYMATTR InstName C9
SYMATTR SpiceLine Rser=18m
SYMATTR Description Capacitor
SYMATTR Type cap
SYMBOL res 144 -432 R0
SYMATTR InstName R14
SYMATTR Value 10K
SYMBOL res -496 -432 R0
SYMATTR InstName R15
SYMATTR Value 10K
SYMBOL res -496 608 R0
SYMATTR InstName R16
SYMATTR Value 4.99K
SYMBOL cap 432 -16 R0
WINDOW 123 26 58 Left 2
WINDOW 3 37 33 Left 2
SYMATTR Value2 x3
SYMATTR Value 100µ
SYMATTR InstName C1
SYMATTR SpiceLine Rser=1m
SYMBOL cap -800 -16 R0
WINDOW 123 28 61 Left 2
WINDOW 3 37 33 Left 2
SYMATTR Value2 x3
SYMATTR Value 100µ
SYMATTR InstName C2
SYMATTR SpiceLine Rser=1m
SYMBOL current 576 -16 R0
WINDOW 123 24 101 Left 2
SYMATTR Value PULSE(5 7.5 1.4m 1u 1u 0.4m 2m)
SYMATTR SpiceLine load
SYMATTR InstName I1
SYMBOL current -1248 -16 R0
WINDOW 123 24 101 Left 2
SYMATTR Value PULSE(5 7.5 1.4m 1u 1u 0.4m 2m)
SYMATTR SpiceLine load
SYMATTR InstName I2
SYMBOL PowerProducts\\LTM4686 -160 160 R0
WINDOW 39 30 595 Center 1
WINDOW 40 49 614 Center 1
SYMATTR SpiceLine VIN_ON=5.5 VIN_OFF=5 Vout_0=1.0 Vout_1=1.8 Ilim0_range=1 Ilim1_range=1 OC_limit0=1 OC_limit1=1 Mode_ll=1 Fault_response=0 Retry_delay=.1m
SYMATTR SpiceLine2 Freq=500K PHs_0=0 PHs_1=180 Ton0_delay=.3m Ton0_rise=.5m Ton1_delay=.3m Ton1_rise=.5m Toff0_delay=.2m Toff0_fall=.3m Toff1_delay=.2m Toff1_fall=.3m Vout0_range=1 Vout1_range=1
SYMATTR InstName U1
SYMBOL cap -608 144 R90
WINDOW 0 0 32 VBottom 2
WINDOW 3 32 32 VTop 2
SYMATTR InstName C3
SYMATTR Value 56p
SYMBOL cap -608 240 R90
WINDOW 3 32 32 VTop 2
WINDOW 0 0 32 VBottom 2
SYMATTR Value 1500p
SYMATTR InstName C4
SYMBOL res -672 240 R90
WINDOW 3 32 56 VTop 2
WINDOW 0 0 56 VBottom 2
SYMATTR Value 21K
SYMATTR InstName R1
SYMBOL cap 304 464 R270
WINDOW 3 0 32 VBottom 2
WINDOW 0 32 32 VTop 2
SYMATTR Value 1500p
SYMATTR InstName C7
SYMBOL res 368 464 R270
WINDOW 3 0 56 VBottom 2
WINDOW 0 32 56 VTop 2
SYMATTR Value 21K
SYMATTR InstName R2
TEXT 496 704 Right 2 !.tran 2m startup
TEXT 640 112 Left 1 ;Please read the following notes carefully, since the model presents different user interface\nthan the real part does.\n \n(1) All PMBus communication and memory address related functions and pins are not modeled. \n \n(2) Changes to all parameter values during the simulation running will not be in effect, unless the\nsimulation is stopped and restarted. This is different from the operation of the part, which will\n respond to the commanded changes while running. \n \n(3) Share_clk is not modeled. The default time reference of LTspice is used as the common time \nbase for all time related parameters.\n \n(4) The following parameters can be defined, by right-clicking the symbol of LTC3880. Different \nnomenclature from the datasheet is adopted here. If any value of these parameters are set beyond \nthe scope discribed in the datasheet, the resulting simulation outcomes are not meaningful.\n \n     VIN_ON & VIN_OFF -- in volts, set the unit start/stop input voltages;\n     Freq -- in Hz, sets switching frequency as one of values of 250K, 350K, \n                425K, 500K, 575K, 650K, 750K, 1000K. FREQ_CFG pin needs to float \n                (or short to VDD25), to make the value be in effect;\n     PHs_0 & PHs_1 -- in degree,  set phase angle related to SYNC signal. \n                Certain combinations are restricted as in datasheet. FREQ_CFG \n                pin needs to float (or short to VDD25), to make the value be in effect;\n     Ton0_delay & Ton0_rise; Ton1_delay & Ton1_rise -- in sec, set delay and soft-start timers for \n                channel0 and channel1. Initialization time is not modeled;\n     Toff0_delay & Toff0_fall; Toff1_delay & Toff1_fall -- in sec, set delay and soft-off timers for \n                channel0 and channel1;\n     Vout_0 & Vout_1 -- in volt, set output voltages respectively;\n     Vout0_range & Vout1_range -- set maximum output range, \n                                                      value 0 for 3.6V \n                                                      value 1 for 2.75V\n     Ilim0_range & Ilim1_range -- set maximum sensed peak current range, with value 0\n                           for low (45.14mV), and 1 for high (81.25mV);\n     OC_limit0 & OC_limit1 -- set ratio of peak current limit to the maximum value defined\n                      by Ilimit_range. It must be one of values: 0.5, 0.572, 0.642, \n                      0.714, 0.786, 0.858, 0.928, 1;\n     Mode_II -- sets light load operation mode: 0 for discontinuous, 1 for forced continuous;\n     Fault_response -- sets the response mode of the unit to occuring faults:\n                                 0 for ignore, 1 for latch up, 2 for Hiccup after Retry_delay time;\n     Retry_delay -- in sec, sets the timer before the unit turns on after a fault;\n     gm -- transconductance of the error amplifier. It must be between 1m mho and 5.73m mho;\n     Rth -- Compensation resistor. It must be set between 0k ohms and 62k ohms;
TEXT -784 800 Left 2 ;Notes: \n  If the simulation model is not found please update with the "Sync Release" command from the "Tools" menu.\n  It remains the customer's responsibility to verify proper and reliable operation in the actual application.\n  Component substitution and printed circuit board layout may significantly affect circuit performance or reliability.\n  Contact your local sales representative for assistance. This circuit is distributed to customers only for use with LTC parts.\n  Copyright © 2019 Analog Devices Inc.  All rights reserved.
TEXT -104 -448 Bottom 2 ;LTM4686- Ultrathin Dual 10A or Single 20A µModule Regulator with Digital Power System Management\nDual Output µModule Buck Regulator with Digital Interface for Control & Monitoring\nInput: 4.5V to 16V     Output: 1V @ 10A & 1.8V @ 10A
