Version 4
SHEET 1 1800 1160
WIRE -320 -240 -416 -240
WIRE -224 -240 -320 -240
WIRE 64 -240 -224 -240
WIRE 80 -240 64 -240
WIRE 192 -240 160 -240
WIRE 208 -240 192 -240
WIRE 288 -240 272 -240
WIRE -416 -224 -416 -240
WIRE -320 -208 -320 -240
WIRE -224 -208 -224 -240
WIRE 448 -208 320 -208
WIRE 576 -208 448 -208
WIRE 608 -208 576 -208
WIRE 688 -208 672 -208
WIRE 64 -176 64 -240
WIRE 192 -176 192 -240
WIRE 320 -176 320 -208
WIRE 448 -176 448 -208
WIRE -416 -128 -416 -144
WIRE -320 -128 -320 -144
WIRE -224 -128 -224 -144
WIRE -128 -112 -144 -112
WIRE -32 -112 -48 -112
WIRE 576 -112 576 -208
WIRE 576 -112 544 -112
WIRE -32 -16 -48 -16
WIRE 688 176 544 176
WIRE 800 176 688 176
WIRE 944 176 800 176
WIRE 688 192 688 176
WIRE 800 192 800 176
WIRE 944 192 944 176
WIRE 944 192 896 192
WIRE 944 208 944 192
WIRE -32 272 -48 272
WIRE 608 272 544 272
WIRE 656 272 608 272
WIRE 688 272 688 256
WIRE 800 272 800 256
WIRE 608 288 608 272
WIRE 656 304 656 272
WIRE 896 304 896 192
WIRE 896 304 656 304
WIRE 944 304 944 288
WIRE 944 304 912 304
WIRE 944 320 944 304
WIRE -48 368 -48 272
WIRE -32 368 -48 368
WIRE 608 368 608 352
WIRE 608 368 544 368
WIRE 672 368 608 368
WIRE 768 368 752 368
WIRE -112 464 -128 464
WIRE -32 464 -48 464
WIRE 912 464 912 304
WIRE 912 464 544 464
WIRE 576 480 576 -112
WIRE 192 544 192 528
WIRE 320 544 320 528
WIRE 64 576 64 528
WIRE 576 576 576 560
WIRE 576 576 64 576
FLAG -416 -128 0
FLAG 768 368 0
FLAG 192 544 0
FLAG 320 544 0
FLAG -144 -112 0
FLAG -128 464 0
FLAG 688 272 0
FLAG 944 320 0
FLAG -48 -16 0
FLAG 944 176 OUT
FLAG 800 272 0
FLAG -416 -240 IN
FLAG -320 -128 0
FLAG -224 -128 0
FLAG 688 -208 0
FLAG 288 -240 0
SYMBOL voltage -416 -240 R0
SYMATTR InstName V1
SYMATTR Value 12
SYMBOL cap -48 448 R90
WINDOW 0 0 32 VBottom 2
WINDOW 3 32 32 VTop 2
SYMATTR InstName C1
SYMATTR Value 100p
SYMBOL polcap 672 192 R0
WINDOW 3 35 32 Left 2
WINDOW 123 25 59 Left 2
SYMATTR Value 330µ
SYMATTR Value2 x2
SYMATTR InstName C2
SYMATTR SpiceLine V=2 Irms=3.5 Rser=0.007 Lser=0
SYMATTR Description Capacitor
SYMATTR Type cap
SYMBOL cap 784 192 R0
WINDOW 3 37 30 Left 2
WINDOW 123 26 57 Left 2
SYMATTR Value 100µ
SYMATTR Value2 x3
SYMATTR InstName C3
SYMATTR SpiceLine Rser=5m
SYMBOL res 928 192 R0
SYMATTR InstName R3
SYMATTR Value 40m
SYMBOL res 656 384 R270
WINDOW 0 32 56 VTop 2
WINDOW 3 0 56 VBottom 2
SYMATTR InstName R2
SYMATTR Value 90.9K
SYMBOL res -32 -128 R90
WINDOW 0 0 56 VBottom 2
WINDOW 3 32 56 VTop 2
SYMATTR InstName R1
SYMATTR Value 47.5K
SYMBOL cap -336 -208 R0
SYMATTR InstName C6
SYMATTR Value 150µ
SYMATTR SpiceLine V=25 Rser=50m
SYMBOL cap -240 -208 R0
WINDOW 3 37 30 Left 2
WINDOW 123 26 57 Left 2
SYMATTR Value 22µ
SYMATTR Value2 x2
SYMATTR InstName C8
SYMATTR SpiceLine V=25 Irms=0 Rser=0.003 Lser=0 mfg="TDK" pn="C575OX5RIE226M" type="X5R"
SYMBOL res 560 464 R0
SYMATTR InstName R5
SYMATTR Value 100K
SYMBOL cap 592 288 R0
WINDOW 0 22 13 Left 2
SYMATTR InstName C4
SYMATTR Value 120p
SYMBOL cap 608 -192 R270
WINDOW 0 32 32 VTop 2
WINDOW 3 0 32 VBottom 2
SYMATTR InstName C5
SYMATTR Value 4.7µ
SYMBOL res 176 -256 R90
WINDOW 0 0 56 VBottom 2
WINDOW 3 32 56 VTop 2
SYMATTR InstName R4
SYMATTR Value 2.2
SYMBOL cap 208 -256 M90
WINDOW 0 0 32 VBottom 2
WINDOW 3 32 32 VTop 2
SYMATTR InstName C7
SYMATTR Value 1µ
SYMBOL PowerProducts\\LTM4645 272 176 R0
SYMATTR InstName U1
TEXT 712 504 Left 2 !.tran .8m startup
TEXT 224 -288 Bottom 2 ;LTM4645 - 25A DC/DC Step-Down µModule Regulator\nSingle Output, High Current, Step-Down uModule Regulator\nInput: 6V to 15V     Outputs: 1V @ 25A, Fsw = 600kHz
TEXT -368 576 Left 2 ;Notes:\n  A smaller TRACK/SS capacitor is being used to reduce simulation time. Typical value should be 0.1µF.\n  More output capacitors may be needed to meet load step and output voltage requirements.\n  If the simulation model is not found please update with the "Sync Release" command from the "Tools" menu.\n  It remains the customer's responsibility to verify proper and reliable operation in the actual application.\n  Component substitution and printed circuit board layout may significantly affect circuit performance or reliability.\n  Contact your local sales representative for assistance. This circuit is distributed to customers only for use with LTC parts.\n  Copyright © 2019 Analog Devices Inc. All rights reserved.
