Version 4
SHEET 1 2572 1244
WIRE 0 -528 -80 -528
WIRE 80 -528 0 -528
WIRE 576 -528 80 -528
WIRE -80 -512 -80 -528
WIRE 80 -464 80 -528
WIRE 272 -464 272 -480
WIRE 368 -464 368 -480
WIRE -80 -416 -80 -432
WIRE 0 -400 0 -528
WIRE 16 -400 0 -400
WIRE 576 -400 576 -528
WIRE 576 -400 528 -400
WIRE 16 -208 -48 -208
WIRE 592 -208 528 -208
WIRE 640 -208 592 -208
WIRE 784 -208 640 -208
WIRE 640 -192 640 -208
WIRE 784 -192 784 -208
WIRE -48 -112 -48 -208
WIRE 16 -112 -48 -112
WIRE 592 -112 592 -208
WIRE 592 -112 528 -112
WIRE 640 -96 640 -128
WIRE 784 -96 784 -112
WIRE 16 -16 -16 -16
WIRE 560 -16 528 -16
WIRE 16 80 -32 80
WIRE 576 80 528 80
WIRE -128 176 -144 176
WIRE -16 176 -64 176
WIRE 16 176 -16 176
WIRE 560 176 528 176
WIRE 16 560 0 560
WIRE 544 560 528 560
WIRE 80 640 80 624
WIRE 80 640 48 640
WIRE 80 656 80 640
WIRE 368 656 368 624
WIRE 80 752 80 736
WIRE 272 752 272 624
WIRE 272 752 80 752
WIRE 368 752 368 736
WIRE 368 752 272 752
WIRE 48 768 48 640
WIRE 464 768 464 624
WIRE 464 768 48 768
WIRE 0 784 0 560
WIRE 544 784 544 560
WIRE 544 784 0 784
WIRE -16 800 -16 176
WIRE 560 800 560 176
WIRE 560 800 -16 800
WIRE -32 816 -32 80
WIRE 576 816 576 80
WIRE 576 816 -32 816
WIRE -48 832 -48 -112
WIRE 592 832 592 -112
WIRE 592 832 -48 832
FLAG -80 -416 0
FLAG 272 -480 0
FLAG 368 -480 0
FLAG 784 -96 0
FLAG 784 -208 OUT
FLAG -144 176 0
FLAG 640 -96 0
FLAG -16 -16 0
FLAG 560 -16 0
FLAG -80 -528 IN
SYMBOL voltage -80 -528 R0
SYMATTR InstName V1
SYMATTR Value 12
SYMBOL cap 624 -192 R0
WINDOW 123 28 56 Left 2
WINDOW 3 38 33 Left 2
SYMATTR Value2 x18
SYMATTR Value 330µ
SYMATTR InstName C3
SYMATTR SpiceLine Rser=1m
SYMBOL cap -128 160 M90
WINDOW 0 0 32 VBottom 2
WINDOW 3 32 32 VTop 2
SYMATTR InstName C6
SYMATTR Value 6800p
SYMBOL res 64 640 R0
SYMATTR InstName R4
SYMATTR Value 10K
SYMBOL current 784 -192 R0
WINDOW 123 24 122 Left 2
WINDOW 39 24 101 Left 2
SYMATTR SpiceLine load
SYMATTR InstName I1
SYMATTR Value PULSE(50 75 1.4m 1u 1u 0.4m 2m)
SYMBOL res 352 640 R0
SYMATTR InstName R1
SYMATTR Value 4.99K
SYMBOL PowerProducts\\LTM4700 272 80 R0
WINDOW 39 67 776 Center 2
WINDOW 40 41 810 Center 2
SYMATTR SpiceLine VIN_ON=5.5 VIN_OFF=5 Vout_0=1.0 Vout_1=1.0 Ilim0_range=1 Ilim1_range=1 OC_limit0=1 OC_limit1=1 Mode_ll=1 Fault_response=0 Retry_delay=.1m gm0=4.36m gm1=4.36m Rth0=8K Rth1=8K Sync=0
SYMATTR SpiceLine2 Freq=350K PHs_0=0 PHs_1=180 Ton0_delay=.3m Ton0_rise=.5m Ton1_delay=.3m Ton1_rise=.5m Toff0_delay=.2m Toff0_fall=.3m Toff1_delay=.2m Toff1_fall=.3m Vout0_range=1 Vout1_range=1
SYMATTR InstName U1
TEXT 816 816 Right 2 !.tran 2m startup
TEXT 312 -552 Bottom 2 ;LTM4700 - Dual 50A or Single 100A µModule Regulator with Digital Power System Management\nSingle 100A µModule Buck Regulator with Digital Interface for Control & Monitoring\nInput: 4.5V to 16V     Output: 1V @ 100A
TEXT -304 928 Left 2 ;Notes: \n  If the simulation model is not found please update with the "Sync Release" command from the "Tools" menu.\n  It remains the customer's responsibility to verify proper and reliable operation in the actual application.\n  Component substitution and printed circuit board layout may significantly affect circuit performance or reliability.\n  Contact your local sales representative for assistance. This circuit is distributed to customers only for use with LTC parts.\n  Copyright © 2019 Analog Devices Inc.  All rights reserved.
TEXT 1248 -416 Left 2 ;Please read the following notes carefully, since the model presents different user interface\nthan the real part does.\n \n(1) All PMBus communication and memory address related functions and pins are not modeled. \n \n(2) Changes to all parameter values during the simulation running will not be in effect, unless the\nsimulation is stopped and restarted. This is different from the operation of the part, which will\n respond to the commanded changes while running. \n \n(3) Share_clk is not modeled. The default time reference of LTspice is used as the common time \nbase for all time related parameters.\n \n(4) The following parameters can be defined, by right-clicking the symbol of LTM4700. Different \nnomenclature from the datasheet is adopted here. If any value of these parameters are set beyond \nthe scope discribed in the datasheet, the resulting simulation outcomes are not meaningful.\n \n     VIN_ON & VIN_OFF -- in volts, set the unit start/stop input voltages;\n     Freq -- in Hz, sets switching frequency as one of values of 250K, 350K, \n                425K, 500K, 575K, 650K, 750K, 1000K. FSWPH_CFG pin needs to float \n                (or short to VDD25), to make the value be in effect;\n     PHs_0 & PHs_1 -- in degree,  set phase angle related to SYNC signal. \n                Certain combinations are restricted as in datasheet. FSWPH_CFG \n                pin needs to float (or short to VDD25), to make the value be in effect;\n     Ton0_delay & Ton0_rise; Ton1_delay & Ton1_rise -- in sec, set delay and soft-start timers for \n                channel0 and channel1. Initialization time is not modeled;\n     Toff0_delay & Toff0_fall; Toff1_delay & Toff1_fall -- in sec, set delay and soft-off timers for \n                channel0 and channel1;\n     Vout_0 & Vout_1 -- in volt, set output voltages respectively;\n     Vout0_range & Vout1_range -- set maximum output range, with value 0\n                                                      for 4.096V (CH0) and 5.5V (CH1); value 1\n                                                      for 2.75V\n     Ilim0_range & Ilim1_range -- set maximum sensed peak current range, with value 0\n                           for low, and 1 for high;\n     OC_limit0 & OC_limit1 -- set ratio of peak current limit to the maximum value defined\n                      by Ilimit_range. It must be one of values: 0.5, 0.572, 0.642, \n                      0.714, 0.786, 0.858, 0.928, 1;\n     Mode_II -- sets light load operation mode: 0 for discontinuous, 1 for forced continuous;\n     Fault_response -- sets the response mode of the unit to occuring faults:\n                                 0 for ignore, 1 for latch up, 2 for Hiccup after Retry_delay time;\n     Retry_delay -- in sec, sets the timer before the unit turns on after a fault;\n     gm -- transconductance of the error amplifier. It must be between 1m mho and 5.73m mho;\n     Rth -- Compensation resistor. It must be set between 0k ohms and 62k ohms;\n     Sync - value 0 for configuring module as Master, value 1 for Slave
