Version 4
SHEET 1 1800 2264
WIRE 608 -368 192 -368
WIRE 320 -336 -416 -336
WIRE 80 -272 64 -272
WIRE 192 -272 192 -368
WIRE 192 -272 160 -272
WIRE 208 -272 192 -272
WIRE 288 -272 272 -272
WIRE 320 -272 320 -336
WIRE -416 -208 -416 -336
WIRE -416 -208 -496 -208
WIRE -336 -208 -416 -208
WIRE -240 -208 -336 -208
WIRE 64 -208 64 -272
WIRE 64 -208 -240 -208
WIRE 576 -208 448 -208
WIRE 624 -208 576 -208
WIRE 704 -208 688 -208
WIRE -496 -192 -496 -208
WIRE -336 -192 -336 -208
WIRE -240 -192 -240 -208
WIRE 64 -176 64 -208
WIRE 192 -176 192 -272
WIRE 320 -176 320 -192
WIRE 448 -176 448 -208
WIRE -144 -112 -160 -112
WIRE -32 -112 -64 -112
WIRE 576 -112 576 -208
WIRE 576 -112 544 -112
WIRE -496 -96 -496 -112
WIRE -336 -96 -336 -128
WIRE -240 -96 -240 -128
WIRE -32 -16 -48 -16
WIRE -32 80 -112 80
WIRE -32 176 -384 176
WIRE 560 176 544 176
WIRE 672 176 560 176
WIRE 800 176 672 176
WIRE 848 176 800 176
WIRE 960 176 848 176
WIRE 1072 176 960 176
WIRE 672 192 672 176
WIRE 848 192 848 176
WIRE 960 192 960 176
WIRE 1072 192 1072 176
WIRE -32 272 -48 272
WIRE 560 272 560 176
WIRE 560 272 544 272
WIRE 848 272 848 256
WIRE 960 272 960 256
WIRE 1072 288 1072 272
WIRE -48 368 -48 272
WIRE -48 368 -352 368
WIRE -32 368 -48 368
WIRE 672 368 672 256
WIRE 672 368 544 368
WIRE 768 368 672 368
WIRE 672 384 672 368
WIRE -240 464 -256 464
WIRE -32 464 -240 464
WIRE 672 464 544 464
WIRE 672 480 672 464
WIRE 64 544 64 528
WIRE 64 544 -208 544
WIRE 192 544 192 528
WIRE 320 544 320 528
WIRE 64 560 64 544
WIRE -112 656 -112 80
WIRE 64 656 64 640
WIRE 64 656 -112 656
WIRE 576 656 576 -112
WIRE 576 656 64 656
WIRE 448 672 448 528
WIRE 448 672 -176 672
WIRE 608 688 608 -368
WIRE 608 688 192 688
WIRE -416 752 -416 -208
WIRE 64 752 -416 752
WIRE 224 752 64 752
WIRE 320 752 304 752
WIRE 592 752 448 752
WIRE 624 752 592 752
WIRE 704 752 688 752
WIRE 64 800 64 752
WIRE 192 800 192 688
WIRE 320 800 320 752
WIRE 448 800 448 752
WIRE -128 864 -144 864
WIRE -32 864 -48 864
WIRE 592 864 592 752
WIRE 592 864 544 864
WIRE -176 960 -176 672
WIRE -32 960 -176 960
WIRE -32 1056 -96 1056
WIRE -384 1152 -384 176
WIRE -32 1152 -384 1152
WIRE 800 1152 800 176
WIRE 800 1152 544 1152
WIRE -32 1248 -64 1248
WIRE -352 1296 -352 368
WIRE -64 1296 -64 1248
WIRE -64 1296 -352 1296
WIRE -64 1344 -64 1296
WIRE -32 1344 -64 1344
WIRE 768 1344 768 368
WIRE 768 1344 544 1344
WIRE -240 1440 -240 464
WIRE -32 1440 -240 1440
WIRE 560 1440 544 1440
WIRE -208 1520 -208 544
WIRE 64 1520 64 1504
WIRE 64 1520 -208 1520
WIRE 192 1536 192 1504
WIRE 320 1536 320 1504
WIRE -96 1568 -96 1056
WIRE 592 1568 592 864
WIRE 592 1568 -96 1568
FLAG -496 -96 0
FLAG 192 544 0
FLAG 320 544 0
FLAG -160 -112 0
FLAG -320 464 0
FLAG 848 272 0
FLAG 1072 288 0
FLAG -48 -16 0
FLAG 1072 176 OUT
FLAG 960 272 0
FLAG -496 -208 IN
FLAG -336 -96 0
FLAG -240 -96 0
FLAG 704 -208 0
FLAG 288 -272 0
FLAG -144 864 0
FLAG 192 1536 0
FLAG 320 1536 0
FLAG 672 480 0
FLAG 560 1440 0
FLAG 704 752 0
SYMBOL voltage -496 -208 R0
SYMATTR InstName V1
SYMATTR Value 12
SYMBOL cap -256 448 R90
WINDOW 0 0 32 VBottom 2
WINDOW 3 32 32 VTop 2
SYMATTR InstName C1
SYMATTR Value 100p
SYMBOL polcap 832 192 R0
WINDOW 3 35 32 Left 2
WINDOW 123 25 59 Left 2
SYMATTR Value 330µ
SYMATTR Value2 x4
SYMATTR InstName C2
SYMATTR SpiceLine V=2 Irms=3.5 Rser=0.007 Lser=0
SYMATTR Description Capacitor
SYMATTR Type cap
SYMBOL cap 944 192 R0
WINDOW 3 37 30 Left 2
WINDOW 123 26 57 Left 2
SYMATTR Value 100µ
SYMATTR Value2 x6
SYMATTR InstName C3
SYMATTR SpiceLine Rser=5m
SYMBOL res 1056 176 R0
SYMATTR InstName R3
SYMATTR Value 20m
SYMBOL res 656 368 R0
SYMATTR InstName R2
SYMATTR Value 90.9K
SYMBOL res -48 -128 R90
WINDOW 0 0 56 VBottom 2
WINDOW 3 32 56 VTop 2
SYMATTR InstName R1
SYMATTR Value 47.5K
SYMBOL cap -352 -192 R0
SYMATTR InstName C6
SYMATTR Value 150µ
SYMATTR SpiceLine V=25 Rser=50m
SYMBOL cap -256 -192 R0
WINDOW 3 37 30 Left 2
WINDOW 123 26 57 Left 2
SYMATTR Value 22µ
SYMATTR Value2 x4
SYMATTR InstName C8
SYMATTR SpiceLine V=25 Irms=0 Rser=0.003 Lser=0 mfg="TDK" pn="C575OX5RIE226M" type="X5R"
SYMBOL res 48 544 R0
SYMATTR InstName R5
SYMATTR Value 100k
SYMBOL cap 656 192 R0
WINDOW 0 22 13 Left 2
SYMATTR InstName C4
SYMATTR Value 120p
SYMBOL cap 624 -224 M90
WINDOW 0 0 32 VBottom 2
WINDOW 3 32 32 VTop 2
SYMATTR InstName C5
SYMATTR Value 4.7µ
SYMBOL res 176 -288 R90
WINDOW 0 0 56 VBottom 2
WINDOW 3 32 56 VTop 2
SYMATTR InstName R4
SYMATTR Value 2.2
SYMBOL cap 208 -288 M90
WINDOW 0 0 32 VBottom 2
WINDOW 3 32 32 VTop 2
SYMATTR InstName C7
SYMATTR Value 1µ
SYMBOL PowerProducts\\LTM4645 272 176 R0
SYMATTR InstName U1
SYMBOL PowerProducts\\LTM4645 272 1152 R0
SYMATTR InstName U2
SYMBOL res -32 848 R90
WINDOW 0 0 56 VBottom 2
WINDOW 3 32 56 VTop 2
SYMATTR InstName R6
SYMATTR Value 47.5K
SYMBOL res 208 768 R270
WINDOW 0 32 56 VTop 2
WINDOW 3 0 56 VBottom 2
SYMATTR InstName R7
SYMATTR Value 10k
SYMBOL res 304 -288 R0
SYMATTR InstName R8
SYMATTR Value 10k
SYMBOL cap 624 768 R270
WINDOW 0 32 32 VTop 2
WINDOW 3 0 32 VBottom 2
SYMATTR InstName C9
SYMATTR Value 4.7µ
TEXT 648 1544 Left 2 !.tran 1m startup
TEXT 200 -368 Bottom 2 ;LTM4645 - 25A DC/DC Step-Down µModule Regulator\nHigh Efficiency, PolyPhase Step-Down Regulator \nInput: 6V to 15V     Outputs: 1V @ 50A, Fsw = 600kHz
TEXT -400 1568 Left 2 ;Notes:\n  A smaller TRACK/SS capacitor is being used to reduce simulation time. Typical value should be 0.1µF.\n  More output capacitors may be needed to meet load step and output voltage requirements.\n  If the simulation model is not found please update with the "Sync Release" command from the "Tools" menu.\n  It remains the customer's responsibility to verify proper and reliable operation in the actual application.\n  Component substitution and printed circuit board layout may significantly affect circuit performance or reliability.\n  Contact your local sales representative for assistance. This circuit is distributed to customers only for use with LTC parts.\n  Copyright © 2019 Analog Devices Inc. All rights reserved.
