Version 4.1
SHEET 1 952 680
WIRE -512 -144 -800 -144
WIRE -240 -144 -512 -144
WIRE -800 -112 -800 -144
WIRE -240 -32 -240 -144
WIRE -800 0 -800 -32
WIRE -528 112 -800 112
WIRE -368 112 -528 112
WIRE 112 112 0 112
WIRE 192 112 112 112
WIRE 272 112 192 112
WIRE -800 144 -800 112
WIRE 112 144 112 112
WIRE 272 160 272 112
WIRE -800 256 -800 224
WIRE 112 272 112 224
WIRE 272 272 272 224
WIRE -240 288 -240 256
FLAG 192 112 vOUT
FLAG -800 256 0
FLAG -528 112 vDAC
FLAG -800 0 0
FLAG -240 288 0
FLAG 112 272 0
FLAG 272 272 0
FLAG -512 -144 Vdd
SYMBOL res 96 128 R0
SYMATTR InstName RLOAD
SYMATTR Value 1k
SYMBOL cap 256 160 R0
SYMATTR InstName CLOAD
SYMATTR Value 15n
SYMBOL voltage -800 128 R0
WINDOW 123 0 0 Left 0
WINDOW 39 0 0 Left 0
SYMATTR InstName Vdac
SYMATTR Value PWL(0 0.625 1u 0.625 +0.5u 1.875)
SYMBOL voltage -800 -128 R0
WINDOW 0 24 96 Left 2
WINDOW 3 24 16 Left 2
WINDOW 123 0 0 Left 0
WINDOW 39 0 0 Left 0
SYMATTR InstName V1
SYMATTR Value 5
SYMBOL AD3531R -208 112 R0
SYMATTR InstName U1
SYMATTR SpiceLine Gain=1
TEXT -160 312 Left 2 !.tran 10u
