Version 4.1
SHEET 1 1388 760
WIRE 576 192 480 192
WIRE 704 192 608 192
WIRE 480 224 480 192
WIRE 704 224 704 192
WIRE 480 336 480 304
WIRE 704 336 704 304
WIRE 576 368 576 192
WIRE 608 368 608 192
WIRE 240 384 64 384
WIRE 368 384 240 384
WIRE 64 416 64 384
WIRE 240 416 240 384
WIRE 368 416 368 384
WIRE 512 416 368 416
WIRE 544 416 512 416
WIRE 752 448 688 448
WIRE 512 480 368 480
WIRE 544 480 512 480
WIRE 64 528 64 496
WIRE 240 528 240 496
WIRE 368 528 368 480
WIRE 368 528 240 528
WIRE 240 560 240 528
WIRE 576 560 576 528
WIRE 608 576 608 528
WIRE 240 656 240 624
WIRE 608 688 608 656
FLAG 480 336 0
FLAG 752 448 OUT
FLAG 240 656 0
FLAG 512 480 -IN
FLAG 512 416 +IN
FLAG 576 560 0
FLAG 64 528 0
FLAG 704 336 0
FLAG 608 688 0
SYMBOL res 224 400 R0
SYMATTR InstName Rshunt
SYMATTR Value 0.001
SYMBOL voltage 480 208 R0
SYMATTR InstName VS
SYMATTR Value 5
SYMBOL voltage 64 400 R0
WINDOW 123 0 0 Left 0
WINDOW 39 0 0 Left 0
SYMATTR InstName VCM
SYMATTR Value 48
SYMBOL load 224 560 R0
WINDOW 123 0 0 Left 0
WINDOW 39 0 0 Left 0
WINDOW 3 6 184 Left 2
SYMATTR Value PWL(0 0 +250m -50 +500m 50 +250m 0)
SYMATTR InstName Iload
SYMBOL voltage 704 208 R0
WINDOW 123 0 0 Left 0
WINDOW 39 0 0 Left 0
SYMATTR InstName VREF1
SYMATTR Value 5
SYMBOL voltage 608 560 R0
WINDOW 123 0 0 Left 0
WINDOW 39 0 0 Left 0
SYMATTR InstName VREF2
SYMATTR Value 0
SYMBOL AD8411A 576 448 R0
SYMATTR InstName U1
TEXT 832 448 Left 2 ;Current Sense Output
TEXT 784 632 Left 2 !.tran 1
TEXT 320 296 Center 2 ;Ishunt\n-50A to 50A
TEXT 848 192 Left 2 ;Bidirectional Operation: \n          REF1 = VS, REF2 = GND\nUnidirectional Operation: \n          VS Referenced:    REF1=REF2 = VS            \n          GND Referenced: REF1=REF2 = GND
