Version 4.1
SHEET 1 2284 680
WIRE 1488 -16 1472 -16
WIRE 1600 -16 1568 -16
WIRE 1600 0 1600 -16
WIRE 1696 48 1664 48
WIRE 1792 48 1760 48
WIRE 1872 48 1792 48
WIRE 1920 48 1872 48
WIRE 1536 64 1504 64
WIRE 1632 64 1600 64
WIRE 1792 64 1792 48
WIRE 1120 80 1024 80
WIRE 1248 80 1200 80
WIRE 1328 80 1248 80
WIRE 1424 80 1392 80
WIRE 1632 80 1632 64
WIRE 1024 96 1024 80
WIRE 1248 96 1248 80
WIRE 1472 96 1472 -16
WIRE 1504 96 1504 64
WIRE 2064 128 1968 128
WIRE 1408 144 1328 144
WIRE 1424 144 1424 80
WIRE 1440 144 1424 144
WIRE 1968 144 1968 128
WIRE 2064 144 2064 128
WIRE 1328 160 1328 144
WIRE 1664 160 1664 48
WIRE 1664 160 1600 160
WIRE 1920 160 1920 48
WIRE 1408 176 1408 144
WIRE 1440 176 1408 176
WIRE 1792 176 1792 144
WIRE 1840 176 1792 176
WIRE 1024 192 1024 176
WIRE 1248 192 1248 176
WIRE 1840 192 1840 176
WIRE 1440 208 1408 208
WIRE 1664 224 1600 224
WIRE 1792 224 1792 176
WIRE 1440 240 1424 240
WIRE 1968 240 1968 224
WIRE 2064 240 2064 224
WIRE 1328 256 1328 240
WIRE 1408 256 1408 208
WIRE 1408 256 1328 256
WIRE 1472 304 1472 288
WIRE 1664 320 1664 224
WIRE 1696 320 1664 320
WIRE 1792 320 1792 304
WIRE 1792 320 1760 320
WIRE 1872 320 1792 320
WIRE 1920 320 1920 208
WIRE 1920 320 1872 320
WIRE 1328 336 1248 336
WIRE 1424 336 1424 240
WIRE 1424 336 1392 336
WIRE 1248 352 1248 336
WIRE 1248 448 1248 432
FLAG 2064 128 OUT_DIFF
FLAG 1632 80 0
FLAG 1600 0 0
FLAG 1024 80 IN
FLAG 1024 192 0
FLAG 1872 48 OUT-
FLAG 1872 320 OUT+
FLAG 1968 240 0
FLAG 2064 240 0
FLAG 1472 304 0
FLAG 1840 192 0
FLAG 1248 192 0
FLAG 1248 448 0
SYMBOL g 1968 128 R0
SYMATTR InstName G1
SYMATTR Value -1m
SYMBOL res 2048 128 R0
SYMATTR InstName R5
SYMATTR Value 1k
SYMBOL voltage 1472 -16 R270
WINDOW 0 32 56 VTop 2
WINDOW 3 -32 56 VBottom 2
SYMATTR InstName VS1
SYMATTR Value 5
SYMBOL voltage 1024 80 R0
WINDOW 0 74 67 Right 2
WINDOW 3 40 100 Left 2
WINDOW 123 40 128 Left 2
SYMATTR InstName Vin
SYMATTR Value SINE(2.5
SYMATTR Value2 100m 20Meg)
SYMBOL cap 1600 48 R90
WINDOW 0 0 32 VBottom 2
WINDOW 3 32 32 VTop 2
SYMATTR InstName C1
SYMATTR Value 0.1µ
SYMBOL res 1312 144 R0
SYMATTR InstName RG
SYMATTR Value 246
SYMBOL res 1776 48 R0
SYMATTR InstName R2
SYMATTR Value 50
SYMBOL res 1776 208 R0
SYMATTR InstName R3
SYMATTR Value 50
SYMBOL cap 1760 32 R90
WINDOW 0 0 32 VBottom 2
WINDOW 3 32 32 VTop 2
SYMATTR InstName C2
SYMATTR Value 0.1µ
SYMBOL cap 1760 304 R90
WINDOW 0 0 32 VBottom 2
WINDOW 3 32 32 VTop 2
SYMATTR InstName C3
SYMATTR Value 0.1µ
SYMBOL res 1216 64 R90
WINDOW 0 0 56 VBottom 2
WINDOW 3 32 56 VTop 2
SYMATTR InstName R1
SYMATTR Value 50
SYMBOL res 1232 80 R0
SYMATTR InstName R4
SYMATTR Value 50
SYMBOL cap 1392 64 R90
WINDOW 0 0 32 VBottom 2
WINDOW 3 32 32 VTop 2
SYMATTR InstName C4
SYMATTR Value 0.1µ
SYMBOL cap 1392 320 R90
WINDOW 0 0 32 VBottom 2
WINDOW 3 32 32 VTop 2
SYMATTR InstName C5
SYMATTR Value 0.1µ
SYMBOL res 1232 336 R0
SYMATTR InstName R6
SYMATTR Value 50
SYMBOL ADA4960-1 1472 192 R0
SYMATTR InstName U1
TEXT 1000 456 Left 2 !.tran 100n
