Version 4.1
SHEET 1 3400 736
WIRE 64 -240 16 -240
WIRE 16 -224 16 -240
WIRE 64 -224 64 -240
WIRE 16 -128 16 -144
WIRE 496 80 464 80
WIRE 624 80 576 80
WIRE 624 96 624 80
WIRE 624 176 624 160
WIRE 816 208 464 208
WIRE -336 240 -416 240
WIRE -256 240 -336 240
WIRE -80 240 -256 240
WIRE -416 256 -416 240
WIRE -336 256 -336 240
WIRE -256 256 -256 240
WIRE -80 272 -112 272
WIRE -112 288 -112 272
WIRE 704 288 464 288
WIRE 592 336 464 336
WIRE -416 352 -416 336
WIRE -336 352 -336 320
WIRE -336 352 -416 352
WIRE -256 352 -256 336
WIRE -256 352 -336 352
WIRE -416 368 -416 352
WIRE 592 384 592 336
WIRE 704 384 704 288
WIRE 816 384 816 208
WIRE 496 400 464 400
WIRE 496 432 496 400
WIRE 16 448 16 416
WIRE 592 512 592 464
WIRE 704 512 704 464
WIRE 816 512 816 464
WIRE 16 544 16 528
FLAG 64 -224 0
FLAG 16 544 0
FLAG 496 432 0
FLAG 816 512 0
FLAG -416 368 0
FLAG 592 512 0
FLAG 704 512 0
FLAG 624 80 OUT
FLAG 592 336 SWSEL1
FLAG 704 288 SWSEL0
FLAG -112 288 0
FLAG 624 176 0
SYMBOL voltage 16 -128 M180
WINDOW 0 43 60 Left 2
WINDOW 3 41 24 Left 2
WINDOW 123 0 0 Left 0
WINDOW 39 0 0 Left 0
SYMATTR InstName V1
SYMATTR Value 2.5
SYMBOL voltage 16 432 R0
WINDOW 123 0 0 Left 0
WINDOW 39 0 0 Left 0
SYMATTR InstName V2
SYMATTR Value -2.5
SYMBOL voltage 816 368 R0
WINDOW 123 0 0 Left 0
WINDOW 39 0 0 Left 0
SYMATTR InstName V3
SYMATTR Value 3
SYMBOL current -416 256 M0
WINDOW 123 24 108 Left 2
WINDOW 39 0 0 Left 0
WINDOW 0 -22 0 Right 2
WINDOW 3 -317 -49 Left 2
SYMATTR InstName I1
SYMATTR Value PULSE(0 634u 2.2u 30n 30n 5u 10u)
SYMBOL cap -352 256 R0
SYMATTR InstName C1
SYMATTR Value 10p
SYMBOL voltage 592 368 R0
WINDOW 3 32 88 Left 2
WINDOW 123 0 0 Left 0
WINDOW 39 0 0 Left 0
SYMATTR Value 0
SYMATTR InstName V4
SYMBOL voltage 704 368 R0
WINDOW 123 0 0 Left 0
WINDOW 39 0 0 Left 0
SYMATTR InstName V5
SYMATTR Value 0
SYMBOL res -272 240 R0
SYMATTR InstName R1
SYMATTR Value 10Meg
SYMBOL cap 608 96 R0
SYMATTR InstName C3
SYMATTR Value 180p
SYMBOL res 592 64 R90
WINDOW 0 0 56 VBottom 2
WINDOW 3 32 56 VTop 2
SYMATTR InstName R3
SYMATTR Value 200
SYMBOL ADA4352-2 208 160 R0
SYMATTR InstName U1
TEXT -448 416 Left 2 !.tran 10u
