Version 4.1
SHEET 1 1720 800
WIRE 592 256 352 256
WIRE 80 304 80 288
WIRE 192 304 192 288
WIRE 416 352 416 320
WIRE 352 368 352 256
WIRE 400 368 352 368
WIRE 592 384 592 256
WIRE 592 384 464 384
WIRE 640 384 592 384
WIRE 80 400 80 384
WIRE 192 400 192 384
WIRE 400 400 304 400
WIRE 592 432 592 384
WIRE 304 448 304 400
WIRE 416 448 416 416
WIRE 304 544 304 528
WIRE 592 544 592 512
FLAG 640 384 OUT
FLAG 80 288 Vcc
FLAG 416 320 Vcc
FLAG 416 448 Vee
FLAG 80 400 0
FLAG 304 544 0
FLAG 592 544 0
FLAG 304 400 IN
FLAG 192 288 Vee
FLAG 192 400 0
SYMBOL voltage 192 288 R0
WINDOW 123 0 0 Left 2
SYMATTR InstName Vee
SYMATTR Value -15
SYMBOL voltage 80 288 R0
WINDOW 123 0 0 Left 2
SYMATTR InstName Vcc
SYMATTR Value 15
SYMBOL res 576 416 R0
SYMATTR InstName RL
SYMATTR Value 1k
SYMBOL voltage 304 432 R0
WINDOW 123 0 0 Left 0
WINDOW 39 0 0 Left 0
SYMATTR InstName V1
SYMATTR Value SINE(0 10m 1Meg)
SYMBOL ADA4898 432 400 R0
SYMATTR InstName U1
TEXT 64 576 Left 2 !.tran 2u
