Version 4.1
SHEET 1 936 832
WIRE 240 160 240 96
WIRE -80 224 -112 224
WIRE 112 224 0 224
WIRE 144 224 112 224
WIRE 384 224 336 224
WIRE 464 224 384 224
WIRE 464 256 464 224
WIRE 112 288 48 288
WIRE 144 288 112 288
WIRE -320 336 -320 304
WIRE -192 336 -192 304
WIRE 48 336 48 288
WIRE 464 352 464 336
WIRE 288 448 288 400
WIRE -320 464 -320 416
WIRE -192 464 -192 416
WIRE 48 464 48 416
WIRE 192 464 192 400
FLAG -112 224 0
FLAG 48 464 0
FLAG 464 352 0
FLAG 288 448 0
FLAG 384 224 vD
FLAG 112 224 vS
FLAG 112 288 vIN
FLAG -192 304 v-
FLAG 240 96 v+
FLAG -192 464 0
FLAG 192 464 v-
FLAG -320 304 v+
FLAG -320 464 0
SYMBOL voltage 16 224 M270
WINDOW 0 32 56 VTop 2
WINDOW 3 -32 56 VBottom 2
WINDOW 123 0 0 Left 0
WINDOW 39 0 0 Left 0
SYMATTR InstName V1
SYMATTR Value 10
SYMBOL res 448 240 R0
SYMATTR InstName R1
SYMATTR Value 301
SYMBOL voltage 48 320 R0
WINDOW 123 0 0 Left 0
WINDOW 39 0 0 Left 0
WINDOW 3 -20 198 Left 2
SYMATTR Value PULSE(3 0 0 1u 1u 5m 10m)
SYMATTR InstName V2
SYMBOL voltage -192 320 R0
WINDOW 123 0 0 Left 0
WINDOW 39 0 0 Left 0
SYMATTR InstName V4
SYMATTR Value -15
SYMBOL voltage -320 320 R0
WINDOW 123 0 0 Left 0
WINDOW 39 0 0 Left 0
SYMATTR InstName V3
SYMATTR Value 15
SYMBOL ADG1402 240 272 R0
SYMATTR InstName U1
TEXT 440 512 Left 2 !.tran 30m
TEXT -360 -16 Left 2 ;Note:\nSwitch shown for a logic 1 input\nParameter performance modeled at 15V dual supply\nPin Capacitance not included
