Version 4.1
SHEET 1 936 832
WIRE 256 96 240 96
WIRE 240 160 240 96
WIRE -80 240 -112 240
WIRE 112 240 0 240
WIRE 144 240 112 240
WIRE 384 240 336 240
WIRE 464 240 384 240
WIRE 576 240 464 240
WIRE 464 272 464 240
WIRE 576 272 576 240
WIRE 112 304 48 304
WIRE 144 304 112 304
WIRE -176 320 -192 320
WIRE -192 352 -192 320
WIRE 48 352 48 304
WIRE 464 368 464 352
WIRE 576 368 576 336
WIRE 176 448 176 416
WIRE 304 448 304 416
WIRE -192 480 -192 432
WIRE 48 480 48 432
FLAG -112 240 0
FLAG 48 480 0
FLAG 464 368 0
FLAG 176 448 0
FLAG 384 240 vD
FLAG 112 240 vS
FLAG 112 304 vIN
FLAG 576 368 0
FLAG -192 320 v+
FLAG 240 96 v+
FLAG -192 480 0
FLAG 304 448 0
SYMBOL voltage 16 240 M270
WINDOW 0 32 56 VTop 2
WINDOW 3 -32 56 VBottom 2
WINDOW 123 0 0 Left 0
WINDOW 39 0 0 Left 0
SYMATTR InstName V1
SYMATTR Value 3
SYMBOL res 448 256 R0
SYMATTR InstName R1
SYMATTR Value 301
SYMBOL voltage 48 336 R0
WINDOW 123 0 0 Left 0
WINDOW 39 0 0 Left 0
WINDOW 3 30 177 Left 2
SYMATTR Value PULSE(0 3 0 10n 10n 980n 2u)
SYMATTR InstName V2
SYMBOL cap 560 272 R0
SYMATTR InstName C1
SYMATTR Value 36p
SYMBOL voltage -192 336 R0
WINDOW 123 0 0 Left 0
WINDOW 39 0 0 Left 0
SYMATTR InstName V3
SYMATTR Value 5
SYMBOL ADG1712 240 288 R0
SYMATTR InstName U2
TEXT 576 512 Left 2 !.tran 10u
TEXT -256 -64 Left 2 ;Note:\nSwitch shown for a logic 0 input\nParameter performance modeled at 5V single supply\nOny one channel is modeled
