Version 4.1
SHEET 1 2172 1360
WIRE 256 -304 208 -304
WIRE 400 -304 336 -304
WIRE 400 -208 400 -304
WIRE -176 -144 -208 -144
WIRE 208 -144 -96 -144
WIRE 272 -144 208 -144
WIRE -304 -80 -320 -80
WIRE 208 -80 -224 -80
WIRE 272 -80 208 -80
WIRE 576 -48 528 -48
WIRE 640 -48 576 -48
WIRE 752 -48 640 -48
WIRE 640 -32 640 -48
WIRE 752 -32 752 -48
WIRE -416 -16 -448 -16
WIRE 208 -16 -336 -16
WIRE 272 -16 208 -16
WIRE -208 48 -288 48
WIRE 208 48 -128 48
WIRE 272 48 208 48
WIRE 640 64 640 48
WIRE 752 64 752 32
WIRE -48 112 -240 112
WIRE 208 112 32 112
WIRE 272 112 208 112
WIRE 576 112 528 112
WIRE 640 112 576 112
WIRE 640 160 640 112
WIRE 64 176 -208 176
WIRE 208 176 144 176
WIRE 272 176 208 176
WIRE 640 288 640 240
WIRE 464 304 464 288
WIRE 192 368 144 368
WIRE 336 368 336 288
WIRE 336 368 272 368
FLAG 208 -304 0
FLAG 640 288 0
FLAG 640 64 0
FLAG 752 64 0
FLAG 464 304 0
FLAG -208 -144 0
FLAG -320 -80 0
FLAG -448 -16 0
FLAG -288 48 0
FLAG -240 112 0
FLAG 208 112 A0
FLAG 208 176 A1
FLAG 208 -144 S1
FLAG 208 -80 S2
FLAG 208 -16 S3
FLAG 208 48 S4
FLAG 576 112 EN
FLAG -208 176 0
FLAG 576 -48 D
FLAG 144 368 0
SYMBOL voltage 352 -304 R90
WINDOW 0 -32 56 VBottom 2
WINDOW 3 32 56 VTop 2
WINDOW 123 0 0 Left 0
WINDOW 39 0 0 Left 0
SYMATTR InstName V7
SYMATTR Value 15
SYMBOL voltage 640 144 R0
WINDOW 123 24 138 Left 2
WINDOW 39 24 117 Left 2
SYMATTR InstName V9
SYMATTR Value PULSE(0 5 0 10n 10n 10u 20u)
SYMBOL res 624 -48 R0
SYMATTR InstName R1
SYMATTR Value 301
SYMBOL cap 736 -32 R0
SYMATTR InstName C3
SYMATTR Value 36p
SYMBOL voltage -80 -144 R90
WINDOW 0 -32 56 VBottom 2
WINDOW 3 32 56 VTop 2
WINDOW 123 0 0 Left 0
WINDOW 39 0 0 Left 0
SYMATTR InstName V1
SYMATTR Value 1
SYMBOL voltage -208 -80 R90
WINDOW 0 -32 56 VBottom 2
WINDOW 3 32 56 VTop 2
WINDOW 123 0 0 Left 0
WINDOW 39 0 0 Left 0
SYMATTR InstName V2
SYMATTR Value 2
SYMBOL voltage -320 -16 R90
WINDOW 0 -32 56 VBottom 2
WINDOW 3 32 56 VTop 2
WINDOW 123 0 0 Left 0
WINDOW 39 0 0 Left 0
SYMATTR InstName V3
SYMATTR Value 3
SYMBOL voltage -112 48 R90
WINDOW 0 -32 56 VBottom 2
WINDOW 3 32 56 VTop 2
WINDOW 123 0 0 Left 0
WINDOW 39 0 0 Left 0
SYMATTR InstName V4
SYMATTR Value 4
SYMBOL voltage 48 112 R90
WINDOW 0 -32 56 VBottom 2
WINDOW 3 32 56 VTop 2
WINDOW 123 0 0 Left 0
WINDOW 39 0 0 Left 0
SYMATTR InstName V5
SYMATTR Value 0
SYMBOL voltage 160 176 R90
WINDOW 0 -32 56 VBottom 2
WINDOW 3 32 56 VTop 2
WINDOW 123 0 0 Left 0
WINDOW 39 0 0 Left 0
SYMATTR InstName V6
SYMATTR Value 0
SYMBOL voltage 288 368 R90
WINDOW 0 -41 50 VBottom 2
WINDOW 3 32 56 VTop 2
WINDOW 123 0 0 Left 0
WINDOW 39 0 0 Left 0
SYMATTR InstName V8
SYMATTR Value -15
SYMBOL ADG5204 400 112 R0
SYMATTR InstName U1
TEXT 776 384 Left 2 !.tran 100u
TEXT -88 -456 Left 2 ;Notes:\nSwitch parameter modeled at 15V dual supplies
