Version 4.1
SHEET 1 880 680
WIRE 304 80 304 48
WIRE -128 160 -160 160
WIRE 208 160 -48 160
WIRE 464 160 400 160
WIRE 608 160 464 160
WIRE 464 192 464 160
WIRE 608 192 608 160
WIRE 208 224 80 224
WIRE 464 304 464 272
WIRE 608 304 608 256
WIRE -240 320 -240 272
WIRE -128 320 -128 272
WIRE 80 368 80 224
WIRE 240 384 240 336
WIRE 368 384 368 336
WIRE -240 448 -240 400
WIRE -128 448 -128 400
WIRE 80 496 80 448
FLAG 464 304 0
FLAG 608 304 0
FLAG -240 448 0
FLAG -160 160 0
FLAG 80 496 0
FLAG 368 384 0
FLAG 304 48 +V
FLAG -240 272 +V
FLAG 240 384 -V
FLAG -128 448 0
FLAG -128 272 -V
SYMBOL voltage -32 160 R90
WINDOW 0 -32 56 VBottom 2
WINDOW 3 32 56 VTop 2
SYMATTR InstName Vs
SYMATTR Value SINE(0 5 1k)
SYMBOL voltage 80 352 R0
WINDOW 123 0 0 Left 0
WINDOW 39 0 0 Left 0
SYMATTR InstName V3
SYMATTR Value PULSE(0 3 0 10n 10n 5m 10m)
SYMBOL res 448 176 R0
SYMATTR InstName R1
SYMATTR Value 301
SYMBOL cap 592 192 R0
SYMATTR InstName C1
SYMATTR Value 36p
SYMBOL voltage -240 304 R0
SYMATTR InstName V1
SYMATTR Value 5
SYMBOL voltage -128 304 R0
SYMATTR InstName V2
SYMATTR Value -5
SYMBOL ADG601 304 208 R0
SYMATTR InstName U1
TEXT 536 448 Left 2 !.tran 20m
TEXT -376 -48 Left 2 ;Note:\nSwitch shown for a logic 0 input.\nPin capacitance and charge injection not included.
