Version 4.1
SHEET 1 2144 2724
WIRE 912 96 912 32
WIRE 656 176 624 176
WIRE 768 176 736 176
WIRE 816 176 768 176
WIRE 1056 176 1008 176
WIRE 1088 176 1056 176
WIRE 1088 192 1088 176
WIRE 816 240 736 240
WIRE 1088 288 1088 272
WIRE 560 304 560 240
WIRE 736 304 736 240
WIRE 912 368 912 352
WIRE 560 416 560 384
WIRE 736 432 736 384
FLAG 624 176 0
FLAG 1088 288 0
FLAG 912 368 0
FLAG 736 432 0
FLAG 912 32 +V
FLAG 560 416 0
FLAG 560 240 +V
FLAG 768 176 RF1A
FLAG 1056 176 RFCA
SYMBOL voltage 752 176 R90
WINDOW 0 -32 56 VBottom 2
WINDOW 3 32 56 VTop 2
WINDOW 123 0 0 Left 0
WINDOW 39 0 0 Left 0
SYMATTR InstName V1
SYMATTR Value 2
SYMBOL voltage 736 288 R0
WINDOW 3 33 134 Left 2
WINDOW 123 0 0 Left 0
WINDOW 39 0 0 Left 0
SYMATTR Value PULSE(3.3 0 0 10u 10u 10m 20m)
SYMATTR InstName V2
SYMBOL voltage 560 288 R0
WINDOW 123 0 0 Left 0
WINDOW 39 0 0 Left 0
SYMATTR InstName V3
SYMATTR Value 3.3
SYMBOL res 1072 176 R0
SYMATTR InstName R1
SYMATTR Value 300
SYMBOL ADGM1121 912 224 R0
SYMATTR InstName U1
TEXT 1240 440 Left 2 !.tran 100m
