Version 4.1
SHEET 1 2844 1336
WIRE -96 -160 -112 -160
WIRE -112 -128 -112 -160
WIRE -640 -112 -656 -112
WIRE -656 -80 -656 -112
WIRE -240 -48 -512 -48
WIRE -208 -48 -240 -48
WIRE 48 -48 -16 -48
WIRE 48 -16 48 -48
WIRE -512 0 -512 -48
WIRE -656 16 -656 0
WIRE -240 16 -336 16
WIRE -208 16 -240 16
WIRE -640 80 -656 80
WIRE 48 80 48 64
WIRE -336 96 -336 16
WIRE -656 112 -656 80
WIRE -512 112 -512 80
WIRE -48 144 -48 128
WIRE -176 160 -176 128
WIRE -176 160 -192 160
WIRE -656 208 -656 192
WIRE -336 240 -336 176
FLAG -656 208 0
FLAG -656 16 0
FLAG -640 -112 +V
FLAG -640 80 -V
FLAG -512 112 0
FLAG -192 160 -V
FLAG -96 -160 +V
FLAG -48 144 0
FLAG -336 240 0
FLAG 48 80 0
FLAG -240 -48 S
FLAG 48 -48 D
FLAG -240 16 IN
SYMBOL voltage -656 -96 R0
WINDOW 123 0 0 Left 0
WINDOW 39 0 0 Left 0
SYMATTR InstName V1
SYMATTR Value 15
SYMBOL voltage -656 96 R0
WINDOW 123 0 0 Left 0
WINDOW 39 0 0 Left 0
SYMATTR InstName V2
SYMATTR Value -15
SYMBOL voltage -512 -16 R0
SYMATTR InstName V3
SYMATTR Value sine(0 5 1K)
SYMBOL voltage -336 80 R0
WINDOW 3 19 116 Left 2
SYMATTR Value pulse(0 3.3 0 1u 1u 5m 10m)
SYMATTR InstName V4
SYMBOL res 32 -32 R0
SYMATTR InstName R1
SYMATTR Value 1K
SYMBOL ADG1412 -112 0 R0
SYMATTR InstName U1
TEXT 16 160 Left 2 !.tran 30m
