Version 4.1
SHEET 1 2808 1464
WIRE 1824 880 1728 880
WIRE 1984 880 1824 880
WIRE 1728 896 1728 880
WIRE 1984 896 1984 880
WIRE 1728 992 1728 976
WIRE 1824 1024 1824 880
WIRE 1856 1024 1824 1024
WIRE 2160 1024 2112 1024
WIRE 2256 1024 2160 1024
WIRE 2160 1040 2160 1024
WIRE 2256 1040 2256 1024
WIRE 2160 1136 2160 1104
WIRE 2256 1136 2256 1120
WIRE 1984 1168 1984 1152
FLAG 2256 1024 vOUT
FLAG 2256 1136 0
FLAG 1728 992 0
FLAG 1728 880 vIN
FLAG 1984 1168 0
FLAG 2160 1136 0
SYMBOL VOLTAGE 1728 880 R0
SYMATTR InstName V1
SYMATTR Value 3.3
SYMBOL res 2240 1024 R0
SYMATTR InstName Rload
SYMATTR Value 14
SYMBOL cap 2144 1040 R0
SYMATTR InstName C1
SYMATTR Value 1u
SYMATTR SpiceLine Rser=1m
SYMBOL ADPL40502-2.8 1984 1024 R0
SYMATTR InstName U1
TEXT 2144 1200 Left 2 !.tran 1m startup
