Version 4.1
SHEET 1 3080 852
WIRE -1952 -352 -2208 -352
WIRE -1408 -352 -1648 -352
WIRE -2208 -320 -2208 -352
WIRE -1408 -320 -1408 -352
WIRE -1952 -288 -2112 -288
WIRE -1488 -288 -1648 -288
WIRE -3024 -256 -3056 -256
WIRE -2624 -256 -2656 -256
WIRE -3056 -224 -3056 -256
WIRE -2656 -224 -2656 -256
WIRE -1952 -224 -2048 -224
WIRE -1552 -224 -1648 -224
WIRE -2208 -208 -2208 -240
WIRE -1408 -208 -1408 -240
WIRE -1952 -160 -2048 -160
WIRE -1552 -160 -1648 -160
WIRE -3056 -112 -3056 -144
WIRE -2656 -112 -2656 -144
WIRE -1952 -96 -2048 -96
WIRE -1552 -96 -1648 -96
WIRE -1952 -32 -2048 -32
WIRE -1552 -32 -1648 -32
WIRE -3024 0 -3056 0
WIRE -2624 0 -2656 0
WIRE -3056 32 -3056 0
WIRE -2656 32 -2656 0
WIRE -1952 32 -2208 32
WIRE -1408 32 -1648 32
WIRE -2208 64 -2208 32
WIRE -1408 64 -1408 32
WIRE -3056 144 -3056 112
WIRE -2656 144 -2656 112
WIRE -2208 176 -2208 144
WIRE -1408 176 -1408 144
FLAG -2208 -208 0
FLAG -2112 -288 0
FLAG -2048 -224 VIA
FLAG -2048 -160 VIB
FLAG -2048 -96 VIC
FLAG -1552 -32 VID
FLAG -1552 -96 VOC
FLAG -1552 -160 VOB
FLAG -1552 -224 VOA
FLAG -2048 -32 VOD
FLAG -2208 176 0
FLAG -1408 176 0
FLAG -3056 -112 0
FLAG -2656 -112 0
FLAG -3056 144 0
FLAG -2656 144 0
FLAG -3024 -256 VIA
FLAG -2624 -256 VIB
FLAG -3024 0 VIC
FLAG -2624 0 VID
FLAG -1488 -288 0
FLAG -1408 -208 0
SYMBOL voltage -2208 -336 R0
WINDOW 0 29 23 Left 2
WINDOW 3 20 102 Left 2
WINDOW 123 0 0 Left 0
WINDOW 39 0 0 Left 0
SYMATTR InstName V1
SYMATTR Value 5
SYMBOL voltage -3056 -240 R0
WINDOW 0 32 24 Left 2
WINDOW 3 16 104 Left 2
WINDOW 123 0 0 Left 0
WINDOW 39 0 0 Left 0
SYMATTR InstName V5
SYMATTR Value PULSE(0 5 0 1n 1n 5u 10u)
SYMBOL voltage -2656 -240 R0
WINDOW 0 32 25 Left 2
WINDOW 3 18 102 Left 2
WINDOW 123 0 0 Left 0
WINDOW 39 0 0 Left 0
SYMATTR InstName V6
SYMATTR Value PULSE(0 5 0 1n 1n 5u 10u)
SYMBOL voltage -3056 16 R0
WINDOW 0 31 23 Left 2
WINDOW 3 17 103 Left 2
WINDOW 123 0 0 Left 0
WINDOW 39 0 0 Left 0
SYMATTR InstName V7
SYMATTR Value PULSE(0 5 0 1n 1n 5u 10u)
SYMBOL voltage -2656 16 R0
WINDOW 0 32 25 Left 2
WINDOW 3 17 103 Left 2
WINDOW 123 0 0 Left 0
WINDOW 39 0 0 Left 0
SYMATTR InstName V8
SYMATTR Value PULSE(5 0 0 1n 1n 5u 10u)
SYMBOL ADuM341E1 -1792 -240 R0
SYMATTR InstName U1
SYMBOL voltage -1408 -336 R0
WINDOW 0 29 23 Left 2
WINDOW 3 20 102 Left 2
WINDOW 123 0 0 Left 0
WINDOW 39 0 0 Left 0
SYMATTR InstName V2
SYMATTR Value 5
SYMBOL voltage -2208 48 R0
WINDOW 0 29 23 Left 2
WINDOW 3 20 102 Left 2
WINDOW 123 0 0 Left 0
WINDOW 39 0 0 Left 0
SYMATTR InstName V3
SYMATTR Value 5
SYMBOL voltage -1408 48 R0
WINDOW 0 29 23 Left 2
WINDOW 3 20 102 Left 2
WINDOW 123 0 0 Left 0
WINDOW 39 0 0 Left 0
SYMATTR InstName V4
SYMATTR Value 5
TEXT -1952 88 Left 2 !.tran 50u
