Version 4.1
SHEET 1 1144 1256
WIRE 80 144 16 144
WIRE 256 144 160 144
WIRE 512 144 400 144
WIRE 704 144 592 144
WIRE -96 240 -256 240
WIRE 16 240 16 144
WIRE 16 240 -16 240
WIRE 32 240 16 240
WIRE 128 240 112 240
WIRE 160 240 128 240
WIRE 256 240 256 144
WIRE 256 240 224 240
WIRE 304 240 256 240
WIRE 400 240 400 144
WIRE 400 240 384 240
WIRE 464 240 400 240
WIRE 608 240 544 240
WIRE 624 240 608 240
WIRE 704 240 704 144
WIRE 704 240 688 240
WIRE 736 240 704 240
WIRE -256 272 -256 240
WIRE 400 272 400 240
WIRE 16 304 16 240
WIRE 256 336 256 240
WIRE 256 336 160 336
WIRE 400 352 400 336
WIRE -256 368 -256 352
WIRE 16 384 16 368
WIRE 160 416 160 336
WIRE 192 416 160 416
WIRE 704 416 704 240
WIRE 704 416 464 416
WIRE -256 464 -256 448
WIRE 128 496 128 240
WIRE 192 496 128 496
WIRE 608 496 608 240
WIRE 608 496 464 496
WIRE 192 576 160 576
WIRE 496 576 464 576
WIRE -32 656 -48 656
WIRE 192 656 48 656
WIRE 528 656 464 656
WIRE 624 656 608 656
WIRE 192 736 160 736
WIRE 496 736 464 736
WIRE 192 816 160 816
WIRE 496 816 464 816
WIRE 160 896 160 816
WIRE 192 896 160 896
WIRE 496 896 496 816
WIRE 496 896 464 896
FLAG -256 464 0
FLAG 160 576 0
FLAG 16 384 0
FLAG 496 576 0
FLAG 400 352 0
FLAG 736 240 OUT
FLAG -256 240 IN
FLAG -48 656 0
FLAG 624 656 0
FLAG 160 736 0
FLAG 496 736 0
SYMBOL res 176 128 R90
WINDOW 0 0 56 VBottom 2
WINDOW 3 32 56 VTop 2
SYMATTR InstName R1
SYMATTR Value 464
SYMBOL voltage -256 256 R0
WINDOW 3 37 80 Left 2
WINDOW 123 24 124 Left 2
WINDOW 39 0 0 Left 0
SYMATTR Value SINE(0 1 100Meg)
SYMATTR InstName V3
SYMBOL cap 224 224 R90
WINDOW 0 0 32 VBottom 2
WINDOW 3 32 32 VTop 2
SYMATTR InstName C1
SYMATTR Value 47p
SYMBOL res 128 224 R90
WINDOW 0 0 56 VBottom 2
WINDOW 3 32 56 VTop 2
SYMATTR InstName R3
SYMATTR Value 1.33K
SYMBOL cap 0 304 R0
SYMATTR InstName C2
SYMATTR Value 220p
SYMBOL cap 688 224 R90
WINDOW 0 0 32 VBottom 2
WINDOW 3 32 32 VTop 2
SYMATTR InstName C3
SYMATTR Value 22p
SYMBOL res 560 224 R90
WINDOW 0 0 56 VBottom 2
WINDOW 3 32 56 VTop 2
SYMATTR InstName R5
SYMATTR Value 1.13K
SYMBOL res 400 224 R90
WINDOW 0 0 56 VBottom 2
WINDOW 3 32 56 VTop 2
SYMATTR InstName R6
SYMATTR Value 549
SYMBOL cap 384 272 R0
SYMATTR InstName C4
SYMATTR Value 470p
SYMBOL res 0 224 R90
WINDOW 0 0 56 VBottom 2
WINDOW 3 32 56 VTop 2
SYMATTR InstName R4
SYMATTR Value 464
SYMBOL res 608 128 R90
WINDOW 0 0 56 VBottom 2
WINDOW 3 32 56 VTop 2
SYMATTR InstName R2
SYMATTR Value 549
SYMBOL voltage -256 352 R0
WINDOW 3 42 80 Left 2
WINDOW 123 24 124 Left 2
WINDOW 39 0 0 Left 0
SYMATTR Value SINE(0 1 10k)
SYMATTR InstName V4
SYMBOL voltage 64 656 M270
WINDOW 0 32 56 VTop 2
WINDOW 3 -32 56 VBottom 2
SYMATTR InstName V5
SYMATTR Value 5
SYMBOL voltage 512 656 M90
WINDOW 0 -32 56 VBottom 2
WINDOW 3 32 56 VTop 2
SYMATTR InstName V6
SYMATTR Value -5
SYMBOL LT1365 336 640 R0
SYMATTR InstName U2
TEXT 312 48 Bottom 2 ;2MHz, 4th Order Butterworth Filter
TEXT 216 1024 Left 2 !.tran 0.2m
