Version 4.1
SHEET 1 1388 1464
WIRE 80 544 -48 544
WIRE 192 544 160 544
WIRE 224 544 192 544
WIRE 320 544 288 544
WIRE 368 544 320 544
WIRE 480 544 448 544
WIRE 512 544 480 544
WIRE 624 544 576 544
WIRE 672 544 624 544
WIRE 800 544 752 544
WIRE 832 544 800 544
WIRE 912 544 896 544
WIRE 976 544 912 544
WIRE 1088 544 1056 544
WIRE 1120 544 1088 544
WIRE 1216 544 1184 544
WIRE 1248 544 1216 544
WIRE -48 560 -48 544
WIRE 624 640 624 544
WIRE 624 640 528 640
WIRE 800 640 800 544
WIRE 944 640 800 640
WIRE 992 640 976 640
WIRE 1216 640 1216 544
WIRE 1216 640 1072 640
WIRE -48 656 -48 640
WIRE 320 704 320 544
WIRE 608 704 320 704
WIRE 912 704 912 544
WIRE 912 704 880 704
WIRE 192 784 192 544
WIRE 608 784 192 784
WIRE 944 784 944 640
WIRE 944 784 880 784
WIRE 528 864 528 640
WIRE 608 864 528 864
WIRE 976 864 976 640
WIRE 976 864 880 864
WIRE 576 944 560 944
WIRE 608 944 576 944
WIRE 912 944 880 944
WIRE 608 1024 576 1024
WIRE 912 1024 880 1024
WIRE 480 1104 480 544
WIRE 608 1104 480 1104
WIRE 1088 1104 1088 544
WIRE 1088 1104 880 1104
WIRE 528 1184 528 864
WIRE 608 1184 528 1184
WIRE 1216 1184 1216 640
WIRE 1216 1184 880 1184
WIRE 368 1280 256 1280
WIRE 528 1280 448 1280
WIRE 576 1280 576 1024
WIRE 576 1280 528 1280
WIRE 912 1280 912 1024
WIRE 912 1280 576 1280
WIRE 256 1296 256 1280
WIRE 528 1296 528 1280
WIRE 256 1392 256 1376
WIRE 528 1392 528 1376
FLAG 256 1392 0
FLAG 256 1280 V+
FLAG 1248 544 OUT
FLAG -48 544 IN
FLAG -48 656 0
FLAG 528 1392 0
FLAG 576 944 V+
FLAG 912 944 0
SYMBOL voltage 256 1280 R0
SYMATTR InstName V1
SYMATTR Value 3.3
SYMBOL res 176 528 R90
WINDOW 0 0 56 VBottom 2
WINDOW 3 32 56 VTop 2
SYMATTR InstName R1
SYMATTR Value 29.4K
SYMBOL voltage -48 544 R0
WINDOW 123 39 57 Left 2
WINDOW 39 0 0 Left 2
SYMATTR InstName V2
SYMATTR Value SINE(1.65 1 10k)
SYMBOL cap 288 528 R90
WINDOW 0 0 32 VBottom 2
WINDOW 3 32 32 VTop 2
SYMATTR InstName C1
SYMATTR Value 10n
SYMBOL res 464 528 R90
WINDOW 0 0 56 VBottom 2
WINDOW 3 32 56 VTop 2
SYMATTR InstName R2
SYMATTR Value 8.66K
SYMBOL cap 576 528 R90
WINDOW 0 0 32 VBottom 2
WINDOW 3 32 32 VTop 2
SYMATTR InstName C2
SYMATTR Value 10n
SYMBOL res 768 528 R90
WINDOW 0 0 56 VBottom 2
WINDOW 3 32 56 VTop 2
SYMATTR InstName R3
SYMATTR Value 11.8K
SYMBOL cap 896 528 R90
WINDOW 0 0 32 VBottom 2
WINDOW 3 32 32 VTop 2
SYMATTR InstName C3
SYMATTR Value 10n
SYMBOL res 1072 528 R90
WINDOW 0 0 56 VBottom 2
WINDOW 3 32 56 VTop 2
SYMATTR InstName R4
SYMATTR Value 21.5K
SYMBOL cap 1184 528 R90
WINDOW 0 0 32 VBottom 2
WINDOW 3 32 32 VTop 2
SYMATTR InstName C4
SYMATTR Value 10n
SYMBOL res 464 1264 R90
WINDOW 0 0 56 VBottom 2
WINDOW 3 32 56 VTop 2
SYMATTR InstName R5
SYMATTR Value 10K
SYMBOL res 512 1280 R0
SYMATTR InstName R6
SYMATTR Value 10K
SYMBOL res 1088 624 R90
WINDOW 0 0 56 VBottom 2
WINDOW 3 32 56 VTop 2
SYMATTR InstName R7
SYMATTR Value 11.8K
SYMBOL LT1467L 752 928 R0
SYMATTR InstName U3
TEXT 672 448 Bottom 2 ;4-Pole 1KHz, 3.3V Single Supply, State Variable Filter
TEXT 728 1448 Left 2 !.tran 5m
