Version 4.1
SHEET 1 1388 836
WIRE 224 32 192 32
WIRE 320 32 288 32
WIRE 512 32 480 32
WIRE 656 32 576 32
WIRE 832 32 800 32
WIRE 928 32 896 32
WIRE 1120 32 1088 32
WIRE 1264 32 1184 32
WIRE 80 96 -48 96
WIRE 192 96 192 32
WIRE 192 96 160 96
WIRE 928 96 928 32
WIRE 928 96 880 96
WIRE 976 96 928 96
WIRE 1088 96 1088 32
WIRE 1088 96 1056 96
WIRE 1232 96 1088 96
WIRE -48 112 -48 96
WIRE 320 112 320 32
WIRE 320 112 272 112
WIRE 368 112 320 112
WIRE 480 112 480 32
WIRE 480 112 448 112
WIRE 624 112 480 112
WIRE 1264 112 1264 32
WIRE 1296 112 1264 112
WIRE 656 128 656 32
WIRE 704 128 656 128
WIRE 800 128 800 32
WIRE 800 128 784 128
WIRE 272 192 272 112
WIRE 288 192 272 192
WIRE 592 192 560 192
WIRE 608 192 592 192
WIRE 880 192 880 96
WIRE 896 192 880 192
WIRE 1200 192 1168 192
WIRE 1216 192 1200 192
WIRE -48 208 -48 192
WIRE 192 288 192 96
WIRE 288 288 192 288
WIRE 656 288 656 128
WIRE 656 288 560 288
WIRE 800 288 800 128
WIRE 896 288 800 288
WIRE 1264 288 1264 112
WIRE 1264 288 1168 288
WIRE 288 384 192 384
WIRE 624 384 624 112
WIRE 624 384 560 384
WIRE 896 384 816 384
WIRE 1232 384 1232 96
WIRE 1232 384 1168 384
WIRE 288 480 256 480
WIRE 624 480 560 480
WIRE 896 480 864 480
WIRE 1232 480 1168 480
WIRE 192 560 192 384
WIRE 656 560 656 288
WIRE 656 560 192 560
WIRE 816 576 816 384
WIRE 944 576 816 576
WIRE 1264 576 1264 288
WIRE 1264 576 1024 576
WIRE 368 640 256 640
WIRE 528 640 448 640
WIRE 624 640 624 480
WIRE 624 640 528 640
WIRE 1232 640 1232 480
WIRE 1232 640 624 640
WIRE 256 656 256 640
WIRE 528 656 528 640
WIRE 256 752 256 736
WIRE 528 752 528 736
FLAG 256 752 0
FLAG 256 640 V+
FLAG 1296 112 OUT
FLAG -48 96 IN
FLAG -48 208 0
FLAG 528 752 0
FLAG 256 480 0
FLAG 592 192 V+
FLAG 1200 192 V+
FLAG 864 480 0
SYMBOL voltage 256 640 R0
SYMATTR InstName V1
SYMATTR Value 3.3
SYMBOL res 176 80 R90
WINDOW 0 0 56 VBottom 2
WINDOW 3 32 56 VTop 2
SYMATTR InstName R1
SYMATTR Value 29.4K
SYMBOL voltage -48 96 R0
WINDOW 123 39 57 Left 2
WINDOW 39 0 0 Left 2
SYMATTR InstName V2
SYMATTR Value SINE(1.65 1 10k)
SYMBOL cap 288 16 R90
WINDOW 0 0 32 VBottom 2
WINDOW 3 32 32 VTop 2
SYMATTR InstName C1
SYMATTR Value 10n
SYMBOL res 464 96 R90
WINDOW 0 0 56 VBottom 2
WINDOW 3 32 56 VTop 2
SYMATTR InstName R2
SYMATTR Value 8.66K
SYMBOL cap 576 16 R90
WINDOW 0 0 32 VBottom 2
WINDOW 3 32 32 VTop 2
SYMATTR InstName C2
SYMATTR Value 10n
SYMBOL res 800 112 R90
WINDOW 0 0 56 VBottom 2
WINDOW 3 32 56 VTop 2
SYMATTR InstName R3
SYMATTR Value 11.8K
SYMBOL cap 896 16 R90
WINDOW 0 0 32 VBottom 2
WINDOW 3 32 32 VTop 2
SYMATTR InstName C3
SYMATTR Value 10n
SYMBOL res 1072 80 R90
WINDOW 0 0 56 VBottom 2
WINDOW 3 32 56 VTop 2
SYMATTR InstName R4
SYMATTR Value 21.5K
SYMBOL cap 1184 16 R90
WINDOW 0 0 32 VBottom 2
WINDOW 3 32 32 VTop 2
SYMATTR InstName C4
SYMATTR Value 10n
SYMBOL res 464 624 R90
WINDOW 0 0 56 VBottom 2
WINDOW 3 32 56 VTop 2
SYMATTR InstName R5
SYMATTR Value 10K
SYMBOL res 512 640 R0
SYMATTR InstName R6
SYMATTR Value 10K
SYMBOL res 1040 560 R90
WINDOW 0 0 56 VBottom 2
WINDOW 3 32 56 VTop 2
SYMATTR InstName R7
SYMATTR Value 11.8K
SYMBOL LT1466L 432 384 R0
SYMATTR InstName U1
SYMBOL LT1466L 1040 384 R0
SYMATTR InstName U2
TEXT 680 -104 Bottom 2 ;4-Pole 1KHz, 3.3V Single Supply, State Variable Filter
TEXT 392 808 Left 2 !.tran 5m
