Version 4.1
SHEET 1 1116 932
WIRE 48 48 -16 48
WIRE 416 48 400 48
WIRE -272 80 -496 80
WIRE 48 80 48 48
WIRE 400 80 400 48
WIRE -496 96 -496 80
WIRE -272 128 -272 80
WIRE -224 128 -272 128
WIRE -192 128 -224 128
WIRE -16 128 -16 48
WIRE -16 128 -128 128
WIRE -272 160 -272 128
WIRE -496 192 -496 176
WIRE 544 208 496 208
WIRE 544 256 496 256
WIRE -512 288 -528 288
WIRE -384 288 -400 288
WIRE -272 288 -272 240
WIRE -224 288 -272 288
WIRE -192 288 -128 128
WIRE -192 288 -224 288
WIRE -128 288 -192 128
WIRE -112 288 -128 288
WIRE -16 288 -32 288
WIRE 544 288 544 256
WIRE 544 288 496 288
WIRE -528 304 -528 288
WIRE -400 304 -400 288
WIRE -272 304 -272 288
WIRE 544 304 544 288
WIRE 400 384 400 336
WIRE 416 384 400 384
WIRE -528 400 -528 384
WIRE -400 400 -400 384
WIRE -272 400 -272 384
WIRE -16 400 -16 288
WIRE 48 400 48 336
WIRE 48 400 -16 400
FLAG -528 400 0
FLAG -400 400 0
FLAG -528 288 V+
FLAG -400 288 V-
FLAG 400 48 V+
FLAG 400 384 V-
FLAG 544 304 0
FLAG -272 400 0
FLAG 544 208 OUT
FLAG -496 192 0
FLAG -224 128 IN+
FLAG -224 288 IN-
SYMBOL voltage -528 288 R0
SYMATTR InstName V1
SYMATTR Value 15
SYMBOL voltage -400 288 R0
SYMATTR InstName V2
SYMATTR Value -15
SYMBOL res -288 144 R0
SYMATTR InstName R1
SYMATTR Value 1
SYMBOL res -16 272 R90
WINDOW 0 0 56 VBottom 2
WINDOW 3 32 56 VTop 2
SYMATTR InstName R2
SYMATTR Value 1
SYMBOL res -288 288 R0
SYMATTR InstName RL
SYMATTR Value 1
SYMBOL voltage -496 80 R0
WINDOW 123 0 0 Left 2
WINDOW 39 0 0 Left 2
SYMATTR InstName Vs
SYMATTR Value SINE(0 20 1k)
SYMBOL LT1997-3 272 208 R0
SYMATTR InstName U1
TEXT 80 0 Bottom 2 ;Gain = 1 Difference Amplifier
TEXT 88 472 Left 2 !.tran 2m
