Version 4
SHEET 1 1988 2304
WIRE 208 1600 208 1584
WIRE 336 1600 336 1584
WIRE 208 1680 208 1664
WIRE 336 1680 336 1664
WIRE -112 1744 -128 1744
WIRE 64 1744 -112 1744
WIRE 96 1744 64 1744
WIRE 480 1744 448 1744
WIRE 592 1744 560 1744
WIRE 64 1808 64 1744
WIRE 96 1808 64 1808
WIRE 736 1808 448 1808
WIRE -128 1840 -128 1824
WIRE 96 1872 -96 1872
WIRE 624 1872 448 1872
WIRE 736 1872 736 1808
WIRE 736 1872 624 1872
WIRE 848 1872 736 1872
WIRE 624 1888 624 1872
WIRE 736 1888 736 1872
WIRE 848 1888 848 1872
WIRE 96 1936 32 1936
WIRE 544 1936 448 1936
WIRE 32 1952 32 1936
WIRE -96 1968 -96 1872
WIRE 736 1968 736 1952
WIRE 544 1984 544 1936
WIRE 624 1984 624 1968
WIRE 624 1984 544 1984
WIRE 848 1984 848 1968
WIRE 96 2000 16 2000
WIRE 16 2016 16 2000
WIRE 624 2016 624 1984
WIRE -96 2064 -96 2048
WIRE 480 2064 448 2064
WIRE 480 2080 480 2064
WIRE 16 2096 16 2080
WIRE 624 2112 624 2096
WIRE 208 2176 208 2128
WIRE 272 2176 208 2176
WIRE 336 2176 336 2128
WIRE 336 2176 272 2176
WIRE 480 2176 480 2160
WIRE 272 2208 272 2176
FLAG 272 2208 0
FLAG -128 1840 0
FLAG -112 1744 IN
FLAG -96 2064 0
FLAG 736 1968 0
FLAG 848 1872 OUT
FLAG 848 1984 0
FLAG 480 2176 0
FLAG 336 1584 0
FLAG 16 2096 0
FLAG 208 1584 0
FLAG 624 2112 0
FLAG 592 1744 IN
FLAG 32 1952 0
SYMBOL cap 320 1664 M180
WINDOW 3 38 21 Left 2
WINDOW 0 40 43 Left 2
SYMATTR Value 2.2µ
SYMATTR InstName C2
SYMBOL voltage -96 1952 R0
WINDOW 123 24 138 Left 2
WINDOW 39 24 117 Left 2
WINDOW 0 36 42 Left 2
WINDOW 3 38 68 Left 2
SYMATTR InstName V2
SYMATTR Value 5
SYMBOL voltage -128 1728 R0
WINDOW 123 0 0 Left 0
WINDOW 39 0 0 Left 0
WINDOW 0 37 45 Left 2
WINDOW 3 35 69 Left 2
SYMATTR InstName V1
SYMATTR Value 3.5
SYMBOL res 576 1728 R90
WINDOW 0 0 56 VBottom 2
WINDOW 3 32 56 VTop 2
SYMATTR InstName R1
SYMATTR Value 499k
SYMBOL cap 720 1888 R0
WINDOW 3 26 56 Left 2
SYMATTR Value 10µ
SYMATTR InstName C4
SYMATTR SpiceLine Rser=2m
SYMBOL cap 0 2016 R0
WINDOW 0 48 27 Bottom 2
WINDOW 3 53 40 Top 2
WINDOW 39 53 32 VTop 2
SYMATTR InstName C3
SYMATTR Value 4.7µ
SYMBOL LT3074 272 1856 R0
SYMATTR InstName U1
SYMBOL res 464 2176 M180
WINDOW 0 36 76 Left 2
WINDOW 3 36 40 Left 2
SYMATTR InstName R2
SYMATTR Value 32.8k
SYMBOL cap 192 1664 M180
WINDOW 0 40 39 Left 2
WINDOW 3 39 15 Left 2
SYMATTR InstName C1
SYMATTR Value 0.47µ
SYMBOL res 608 1872 R0
SYMATTR InstName R3
SYMATTR Value 442k
SYMBOL res 608 2000 R0
SYMATTR InstName R4
SYMATTR Value 49.9k
SYMBOL res 832 1872 R0
SYMATTR InstName Rload
SYMATTR Value 1.1
TEXT 872 2256 Left 2 !.tran 2
