Version 4.1
SHEET 1 1724 1384
WIRE -2448 -544 -2464 -544
WIRE -1904 -544 -2448 -544
WIRE -1712 -544 -1904 -544
WIRE -2464 -528 -2464 -544
WIRE -1904 -480 -1904 -544
WIRE -1712 -480 -1712 -544
WIRE -2464 -432 -2464 -448
WIRE -2112 -384 -2288 -384
WIRE -2064 -384 -2112 -384
WIRE -1488 -384 -1552 -384
WIRE -1392 -384 -1488 -384
WIRE -1392 -368 -1392 -384
WIRE -2512 -304 -2912 -304
WIRE -2448 -304 -2512 -304
WIRE -2416 -304 -2448 -304
WIRE -2384 -304 -2416 -304
WIRE -2288 -304 -2288 -320
WIRE -2288 -304 -2304 -304
WIRE -2096 -304 -2288 -304
WIRE -2064 -304 -2096 -304
WIRE -1504 -304 -1552 -304
WIRE -1392 -304 -1504 -304
WIRE -1344 -304 -1392 -304
WIRE -1200 -304 -1264 -304
WIRE -1184 -304 -1200 -304
WIRE -1072 -304 -1184 -304
WIRE -976 -304 -1072 -304
WIRE -2912 -256 -2912 -304
WIRE -2512 -240 -2512 -304
WIRE -1072 -240 -1072 -304
WIRE -976 -240 -976 -304
WIRE -2416 -224 -2416 -304
WIRE -2064 -224 -2416 -224
WIRE -1200 -224 -1200 -304
WIRE -1200 -224 -1552 -224
WIRE -2416 -208 -2416 -224
WIRE -1200 -208 -1200 -224
WIRE -2912 -144 -2912 -176
WIRE -2064 -144 -2416 -144
WIRE -1200 -144 -1552 -144
WIRE -2512 -96 -2512 -160
WIRE -2416 -96 -2416 -144
WIRE -1200 -96 -1200 -144
WIRE -1072 -96 -1072 -160
WIRE -976 -96 -976 -160
WIRE -2096 -64 -2912 -64
WIRE -2064 -64 -2096 -64
WIRE -1440 -64 -1552 -64
WIRE -2912 -48 -2912 -64
WIRE -2336 16 -2384 16
WIRE -2112 16 -2256 16
WIRE -2064 16 -2112 16
WIRE -1488 16 -1552 16
WIRE -1408 16 -1488 16
WIRE -1264 16 -1328 16
WIRE -2384 96 -2384 16
WIRE -2336 96 -2384 96
WIRE -2112 96 -2256 96
WIRE -2064 96 -2112 96
WIRE -1488 96 -1552 96
WIRE -2384 176 -2384 96
WIRE -2336 176 -2384 176
WIRE -2112 176 -2256 176
WIRE -2064 176 -2112 176
WIRE -1504 176 -1552 176
WIRE -1472 176 -1504 176
WIRE -1392 176 -1408 176
WIRE -2544 256 -2560 256
WIRE -2384 256 -2384 176
WIRE -2384 256 -2464 256
WIRE -2112 256 -2384 256
WIRE -2064 256 -2112 256
WIRE -1504 256 -1552 256
WIRE -1472 256 -1504 256
WIRE -1392 256 -1408 256
WIRE -2720 336 -2752 336
WIRE -2640 336 -2720 336
WIRE -2528 336 -2576 336
WIRE -2112 336 -2528 336
WIRE -2064 336 -2112 336
WIRE -1504 336 -1552 336
WIRE -1472 336 -1504 336
WIRE -1392 336 -1408 336
WIRE -2528 352 -2528 336
WIRE -2752 400 -2752 336
WIRE -2304 416 -2320 416
WIRE -2144 416 -2224 416
WIRE -2064 416 -2144 416
WIRE -2064 496 -2192 496
WIRE -1520 496 -1552 496
WIRE -1488 496 -1520 496
WIRE -1392 496 -1408 496
WIRE -1312 496 -1328 496
WIRE -1904 640 -1904 608
WIRE -1712 640 -1712 608
FLAG -2464 -432 0
FLAG -1392 256 0
FLAG -1392 176 0
FLAG -1504 256 VDD18
FLAG -1504 176 DRVCC
FLAG -1392 336 0
FLAG -1504 336 INTVCC
FLAG -1264 16 EXTVCC
FLAG -1488 16 PGOOD1
FLAG -1488 96 _FAULT
FLAG -1312 496 0
FLAG -1520 496 ITH1
FLAG -1488 -384 BOOST1
FLAG -1504 -304 SW1
FLAG -1200 -96 0
FLAG -976 -96 0
FLAG -1184 -304 OUT1
FLAG -2448 -544 VIN
FLAG -2112 -384 BOOST0
FLAG -2096 -304 SW0
FLAG -2416 -96 0
FLAG -2912 -144 0
FLAG -2448 -304 OUT0
FLAG -2560 256 0
FLAG -2912 32 0
FLAG -2096 -64 RUN0
FLAG -2192 496 INTVCC
FLAG -2752 480 0
FLAG -2720 336 CLK_EXT
FLAG -2112 336 SYNC
FLAG -2528 432 0
FLAG -2112 176 _ALERT
FLAG -2112 16 PGOOD0
FLAG -2112 96 _FAULT
FLAG -2112 256 EXTVCC
FLAG -2320 416 EXTVCC
FLAG -1904 640 0
FLAG -1712 640 0
FLAG -1440 -64 PGOOD0
FLAG -1072 -96 0
FLAG -2512 -96 0
FLAG -2144 416 SHARE_CLK
SYMBOL voltage -2464 -544 R0
WINDOW 123 24 138 Left 2
WINDOW 39 24 117 Left 2
SYMATTR InstName V1
SYMATTR Value 12
SYMBOL cap -1408 272 M270
WINDOW 0 32 32 VTop 2
WINDOW 3 0 32 VBottom 2
SYMATTR InstName C3
SYMATTR Value 4.7µ
SYMBOL cap -1408 192 M270
WINDOW 0 32 32 VTop 2
WINDOW 3 0 32 VBottom 2
SYMATTR InstName C4
SYMATTR Value 10µ
SYMBOL cap -1408 352 M270
WINDOW 0 32 32 VTop 2
WINDOW 3 0 32 VBottom 2
SYMATTR InstName C5
SYMATTR Value 10µ
SYMBOL res -1312 0 R90
WINDOW 0 0 56 VBottom 2
WINDOW 3 32 56 VTop 2
SYMATTR InstName R3
SYMATTR Value 10k
SYMBOL cap -1328 512 M270
WINDOW 0 32 32 VTop 2
WINDOW 3 0 32 VBottom 2
SYMATTR InstName C7
SYMATTR Value 470p
SYMBOL res -1504 512 R270
WINDOW 0 32 56 VTop 2
WINDOW 3 0 56 VBottom 2
SYMATTR InstName R6
SYMATTR Value 15k
SYMBOL ind -1360 -288 R270
WINDOW 0 32 56 VTop 2
WINDOW 3 5 56 VBottom 2
SYMATTR InstName L2
SYMATTR Value 470n
SYMATTR SpiceLine Rser=2.5m
SYMBOL cap -1408 -368 R0
WINDOW 3 -55 29 Left 2
SYMATTR Value 0.1µ
SYMATTR InstName C8
SYMBOL current -976 -240 R0
WINDOW 123 24 122 Left 2
WINDOW 39 24 101 Left 2
SYMATTR SpiceLine load
SYMATTR Value PULSE(0 4 1.9m 1u 1u 100u)
SYMATTR InstName I2
SYMBOL ind -2288 -288 M270
WINDOW 0 32 56 VTop 2
WINDOW 3 5 56 VBottom 2
SYMATTR InstName L3
SYMATTR Value 1µ
SYMATTR SpiceLine Rser=2.5m
SYMBOL cap -2304 -384 R0
WINDOW 0 -40 12 Left 2
SYMATTR InstName C10
SYMATTR Value 0.1µ
SYMBOL current -2912 -256 R0
WINDOW 123 0 0 Left 0
WINDOW 39 31 95 Left 2
WINDOW 3 31 67 Left 2
SYMATTR SpiceLine load
SYMATTR Value PULSE(0 6 1.4m 1u 1u 100u)
SYMATTR InstName I3
SYMBOL voltage -2448 256 R90
WINDOW 123 74 56 VTop 2
WINDOW 39 53 56 VTop 2
WINDOW 0 -32 56 VBottom 2
WINDOW 3 32 56 VTop 2
SYMATTR InstName V5
SYMATTR Value 5
SYMBOL voltage -2912 -64 R0
WINDOW 123 24 138 Left 2
WINDOW 39 24 117 Left 2
WINDOW 3 39 48 Left 2
WINDOW 0 39 20 Left 2
SYMATTR Value PWL(500u 0 500.001u 5 3000u 5 3000.001u 0)
SYMATTR InstName V6
SYMBOL voltage -2752 384 R0
WINDOW 123 24 138 Left 2
WINDOW 39 24 117 Left 2
SYMATTR Value PULSE(0 5 2.5m 1n 1n 500n 1u 500)
SYMATTR InstName V7
SYMBOL cap -2640 320 M90
WINDOW 0 0 32 VBottom 2
WINDOW 3 32 32 VTop 2
SYMATTR InstName C12
SYMATTR Value 1.5n
SYMBOL res -2544 336 R0
SYMATTR InstName R7
SYMATTR Value 162k
SYMBOL res -2240 160 R90
WINDOW 0 0 56 VBottom 2
WINDOW 3 32 56 VTop 2
SYMATTR InstName R8
SYMATTR Value 4700
SYMBOL res -2240 0 R90
WINDOW 0 0 56 VBottom 2
WINDOW 3 32 56 VTop 2
SYMATTR InstName R9
SYMATTR Value 10k
SYMBOL res -2240 80 R90
WINDOW 0 0 56 VBottom 2
WINDOW 3 32 56 VTop 2
SYMATTR InstName R10
SYMATTR Value 10k
SYMBOL res -2208 400 R90
WINDOW 0 0 56 VBottom 2
WINDOW 3 32 56 VTop 2
SYMATTR InstName R11
SYMATTR Value 10k
SYMBOL cap -1216 -208 R0
WINDOW 123 65 49 Left 2
WINDOW 3 59 27 Left 2
SYMATTR Value2 x2
SYMATTR Value 100µ
SYMATTR InstName C1
SYMATTR SpiceLine Rser=2m
SYMBOL cap -2432 -208 R0
WINDOW 123 57 48 Left 2
WINDOW 3 50 26 Left 2
SYMATTR Value2 x3
SYMATTR Value 100µ
SYMATTR InstName C2
SYMATTR SpiceLine Rser=2m
SYMBOL res -1088 -256 R0
SYMATTR InstName R1
SYMATTR Value 0.3
SYMBOL res -2528 -256 R0
SYMATTR InstName R2
SYMATTR Value 3.3
SYMBOL LT7184S -1856 -128 R0
SYMATTR InstName U1
TEXT -1104 600 Left 2 !.tran 3.6m startup
TEXT -528 -600 Left 2 ;NOTES FOR SIMULATION\n \nPlease read the following notes carefully since the model behaves differently from the user \ninterface for the LT7184S_verify_2025JUN11v1.\n \n(1) PMBus communication and memory address related functions and pins are not modeled, \nincluding SDA, SCL, WP.  \n(2) Changes to parameter values while the simulation is running will not take effect unless the\nsimulation is stopped and restarted. This is different from the way the part operates which will\nrespond to the changes while running.  \n(3) Resistor Configuration pins are not modelled. \n(4) Initialization time is not modelled.  After power is applied to PVIN0 or EXTVCC, the real LT7184S_verify_2025JUN11v1\nrequires 13ms (typical) before power conversion or communication can begin.\n(5) Default Fault Response is only modelled (VIN_OV_Fault, Vout_OV_Fault: Immediate off, Infinite retry (10ms retry time), Other Faults: Ignore)\n    The LT7184S_verify_2025JUN11v1 offers different fault response possibility for different faults and programmable retry time\n(6) SHARE_CLK: Default behaviour is modelled ( SHARE_CLK Pulls low when VIN falls below VIN_OFF, Output will be disabled if SHARE_CLK held low)\n \n \nDESCRIPTION OF PARAMETERS\n \nThe following parameters can be defined by right-clicking on the LT7184S_verify_2025JUN11v1 symbol.\nThe nomenclature used here differs from the one in the data sheet. If any value of these parameters is\nset beyond the scope described in the data sheet, the resulting simulation will not be meaningful.:\n \nFREQUENCY_SWITCH -- in Hz, sets switching frequency for both channels\n \nThe parameters below are set independantly for each channel (0 and 1): \nVOUT_COMMAND_n -- in volt, sets output voltage\n \nTON_DELAY_n & TON_RISE_n -- in sec, set turn-on delay and soft-start time\nTOFF_DELAY_n & TOFF_FALL_n -- in sec, set turn-off delay and soft-off time \n \nIlim_range_n -- selects inductor valley current limit option:\n   0 positive valley current limit of 4A, negative valley current limit of -3.5A\n   1 positive valley current limit of 7A, negative valley current limit of -6A\n   2 positive valley current limit of 9A, negative valley current limit of -7.5A\n   3 positive valley current limit of 9A, negative valley current limit of -9A         \n \nPulseSkipMode_n --sets operation mode: 1 for pulse skip mode, 0 for forced continuous conduction mode\n \n \n \nGMEA_control_n --Sets Error Amp parameters, x=0 to 7\n     GmEA = 0.15mS*(x+1)*(1+3*HPLV_n)  (relative to VSENSE)\n \nHPLV_n -- if set to 1, selects High-Performance Low-Vout mode (max 1.375Vout, GMEA is 4X higher)\n \nRITH_n --in ohm, programmable internal compensation\n \nCITH_n --in Farad, programmable internal compensation\n \nMFR_PWM_PHASE_n -- in degree, sets the channel phase delay in 15-degree increments \n                                        (this is relative to the SYNC  input clock if present).\nMFR_DISCHARGE_THRESHOLD--Output voltage threshold to determine that the output has decayed sufficiently to reenable the channel\n \n \nVout_UV_Fault_Limit and Vout_OV_Fault_Limit --- in volt, set the fault limits for the PGOOD and /FAULT outputs\n      Note channel shuts down if VOUT OV FAULT occurs, or VIN>17.6V, or /FAULT pin is pulled low externally\nVout_UV_Warn_Limit and Vout_OV_Warn_Limit-- in volt, set the warning limit for the /ALERT output\n \nEN_SYNC_OUT ---1 Output SYNC Pulses, 0 SYNC works as input.\n \n \n \nTo simulate parallel operation \n \nTie RUN, VIN, SHARE_CLK, _FAULT, _ALERT, PGOOD, ITH pins of all the channels together\nset EN_SYNC_OUT = 1 for only one channel and set EN_SYNC_OUT = 0 for all other channel\nThe parameters set in all the channels should be identical other than EN_SYNC_OUT
