Version 4.1
SHEET 1 1832 1412
WIRE -48 -240 -96 -240
WIRE 176 -240 -48 -240
WIRE 304 -240 176 -240
WIRE 416 -240 304 -240
WIRE 176 -224 176 -240
WIRE 416 -224 416 -240
WIRE 416 -144 416 -160
WIRE 176 -128 176 -144
WIRE 176 -128 -16 -128
WIRE -16 -112 -16 -128
WIRE 176 -64 176 -128
WIRE 304 -64 304 -240
WIRE -16 -16 -16 -48
WIRE -96 0 -96 -240
WIRE 64 0 -96 0
WIRE 496 0 416 0
WIRE 656 0 576 0
WIRE 768 0 656 0
WIRE 896 0 768 0
WIRE 976 0 896 0
WIRE 1024 0 976 0
WIRE -96 48 -96 0
WIRE 768 64 768 0
WIRE 896 64 896 0
WIRE 1024 64 1024 0
WIRE 64 112 32 112
WIRE 656 112 656 0
WIRE 656 112 416 112
WIRE -96 144 -96 128
WIRE 512 224 416 224
WIRE 768 224 768 128
WIRE 768 224 512 224
WIRE 896 224 896 128
WIRE 896 224 768 224
WIRE 1024 224 1024 144
WIRE 1024 224 896 224
WIRE 1024 240 1024 224
WIRE 64 304 -96 304
WIRE 464 304 416 304
WIRE 592 304 544 304
WIRE -96 320 -96 304
WIRE 480 400 416 400
WIRE -96 416 -96 400
WIRE 0 496 -96 496
WIRE 64 496 0 496
WIRE 464 496 416 496
WIRE 544 496 528 496
WIRE -96 512 -96 496
WIRE 64 576 32 576
WIRE -96 592 -96 576
WIRE 64 656 32 656
WIRE 496 656 416 656
WIRE 592 656 496 656
WIRE 496 672 496 656
WIRE 592 688 592 656
WIRE 176 768 176 736
WIRE 304 768 304 736
WIRE 496 768 496 752
WIRE 592 800 592 752
WIRE 64 848 -32 848
WIRE 496 848 496 832
WIRE -32 912 -32 848
WIRE 64 912 64 848
FLAG -96 144 0
FLAG -96 592 0
FLAG 496 848 COM
FLAG -48 -240 IN
FLAG 976 0 OUT
FLAG 176 768 COM
FLAG 304 768 0
FLAG 1024 240 0
FLAG 544 496 VOUT-
FLAG 592 800 COM
FLAG 32 576 0
FLAG 32 656 0
FLAG 32 112 0
FLAG 64 912 0
FLAG -32 912 COM
FLAG 592 304 INTVCC
FLAG 0 496 INTVCC
FLAG -16 -16 COM
FLAG 512 224 VOUT-
FLAG -96 416 COM
FLAG 416 -144 0
FLAG 480 400 0
SYMBOL voltage -96 32 R0
WINDOW 123 0 0 Left 0
WINDOW 39 0 0 Left 0
SYMATTR InstName V1
SYMATTR Value 3.3
SYMBOL res -112 304 R0
SYMATTR InstName R1
SYMATTR Value 100k
SYMBOL cap -112 512 R0
SYMATTR InstName C2
SYMATTR Value 4.7µ
SYMBOL ind 480 16 R270
WINDOW 0 32 56 VTop 2
WINDOW 3 5 56 VBottom 2
SYMATTR InstName L1
SYMATTR Value 70n
SYMATTR SpiceLine Rser=10m
SYMBOL cap 752 64 R0
WINDOW 123 28 83 Left 2
SYMATTR Value2 m=5
SYMATTR InstName C5
SYMATTR Value 100µ
SYMATTR SpiceLine Rser=3m
SYMBOL res 1008 48 R0
SYMATTR InstName Rload
SYMATTR Value {0.5/25}
SYMBOL res 560 288 R90
WINDOW 0 0 56 VBottom 2
WINDOW 3 32 56 VTop 2
SYMATTR InstName R4
SYMATTR Value 100K
SYMBOL res 480 656 R0
SYMATTR InstName R5
SYMATTR Value 2K
SYMBOL cap 480 768 R0
SYMATTR InstName C4
SYMATTR Value 10n
SYMBOL cap 464 512 R270
WINDOW 0 32 32 VTop 2
WINDOW 3 0 32 VBottom 2
SYMATTR InstName C6
SYMATTR Value 10n
SYMBOL cap 576 688 R0
SYMATTR InstName C7
SYMATTR Value 10p
SYMBOL cap 880 64 R0
WINDOW 123 28 83 Left 2
SYMATTR Value2 m=2
SYMATTR InstName C1
SYMATTR Value 22µ
SYMATTR SpiceLine Rser=3m
SYMBOL res 160 -240 R0
SYMATTR InstName R2
SYMATTR Value 2.2
SYMBOL cap -32 -112 R0
SYMATTR InstName C3
SYMATTR Value 10µ
SYMBOL cap 400 -160 M180
WINDOW 0 24 56 Left 2
WINDOW 3 24 8 Left 2
SYMATTR InstName C8
SYMATTR Value 22µ
SYMBOL LT7153SP 240 336 R0
SYMATTR InstName U1
TEXT 152 928 Left 2 !.tran 1m startup
