Version 4.1
SHEET 1 1120 740
WIRE -528 16 -672 16
WIRE -192 16 -528 16
WIRE 368 16 96 16
WIRE -528 32 -528 16
WIRE -672 48 -672 16
WIRE 144 112 96 112
WIRE -528 128 -528 112
WIRE -192 128 -528 128
WIRE 144 128 144 112
WIRE -672 160 -672 128
WIRE -528 160 -528 128
WIRE -288 208 -400 208
WIRE -192 208 -288 208
WIRE 144 208 144 192
WIRE 144 208 96 208
WIRE 240 208 144 208
WIRE 368 208 368 16
WIRE 368 208 320 208
WIRE 464 208 368 208
WIRE 560 208 464 208
WIRE 656 208 560 208
WIRE -400 224 -400 208
WIRE -288 224 -288 208
WIRE 368 224 368 208
WIRE 464 224 464 208
WIRE 560 224 560 208
WIRE 656 224 656 208
WIRE -528 256 -528 240
WIRE -400 320 -400 288
WIRE -288 320 -288 304
WIRE -192 320 -288 320
WIRE 368 320 368 304
WIRE 368 320 96 320
WIRE 464 320 464 288
WIRE 464 320 368 320
WIRE 368 336 368 320
WIRE 560 336 560 288
WIRE 656 336 656 304
WIRE 144 416 96 416
WIRE 144 432 144 416
WIRE 368 432 368 416
WIRE 144 512 144 496
WIRE -112 528 -112 512
FLAG -672 160 0
FLAG -528 256 0
FLAG -400 320 0
FLAG 144 512 0
FLAG -112 528 0
FLAG 368 432 0
FLAG 560 336 0
FLAG 656 336 0
FLAG -672 16 vIN
FLAG 656 208 vOUT
SYMBOL voltage -672 32 R0
WINDOW 123 0 0 Left 0
WINDOW 39 0 0 Left 0
SYMATTR InstName V1
SYMATTR Value 24
SYMBOL res -544 16 R0
SYMATTR InstName R1
SYMATTR Value 3.32Meg
SYMBOL res -544 144 R0
SYMATTR InstName R2
SYMATTR Value 549k
SYMBOL cap -416 224 R0
SYMATTR InstName C1
SYMATTR Value 2.2µ
SYMBOL res -304 208 R0
WINDOW 0 46 35 Left 2
WINDOW 3 42 63 Left 2
SYMATTR InstName R3
SYMATTR Value 20k
SYMBOL cap 160 432 M0
WINDOW 0 -23 7 Left 2
WINDOW 3 -43 57 Left 2
SYMATTR InstName C3
SYMATTR Value 8.2n
SYMBOL cap 128 128 R0
SYMATTR InstName C2
SYMATTR Value 1µ
SYMBOL ind 224 224 R270
WINDOW 0 32 56 VTop 2
WINDOW 3 5 56 VBottom 2
SYMATTR InstName L1
SYMATTR Value 6.8µ
SYMATTR SpiceLine Rser=10m
SYMBOL res 352 208 R0
SYMATTR InstName R4
SYMATTR Value 634k
SYMBOL res 352 320 R0
SYMATTR InstName R5
SYMATTR Value 121k
SYMBOL cap 448 224 R0
SYMATTR InstName C4
SYMATTR Value 6.8p
SYMBOL cap 544 224 R0
WINDOW 123 26 80 Left 2
SYMATTR Value2 m=2
SYMATTR InstName C5
SYMATTR Value 47µ
SYMATTR SpiceLine Rser=1m
SYMBOL res 640 208 R0
SYMATTR InstName Rload
SYMATTR Value 0.909
SYMBOL LT80605 -48 256 R0
SYMATTR InstName U1
TEXT 96 568 Left 2 !.tran 2m startup
