Version 4.1
SHEET 1 3660 1688
WIRE -240 -1312 -288 -1312
WIRE -176 -1312 -240 -1312
WIRE 704 -1312 -176 -1312
WIRE -176 -1296 -176 -1312
WIRE -288 -1280 -288 -1312
WIRE -176 -1200 -176 -1216
WIRE 16 -1200 -176 -1200
WIRE 704 -1200 704 -1312
WIRE 704 -1200 336 -1200
WIRE -176 -1184 -176 -1200
WIRE -288 -1168 -288 -1200
WIRE -176 -1088 -176 -1104
WIRE 704 -1088 704 -1200
WIRE 656 -1072 336 -1072
WIRE 16 -944 -16 -944
WIRE 400 -944 336 -944
WIRE 704 -944 704 -992
WIRE 704 -944 400 -944
WIRE 400 -928 400 -944
WIRE 704 -896 704 -944
WIRE 400 -848 400 -864
WIRE 16 -816 -16 -816
WIRE 656 -816 336 -816
WIRE -128 -688 -288 -688
WIRE 16 -688 -128 -688
WIRE 400 -688 336 -688
WIRE 480 -688 400 -688
WIRE 608 -688 544 -688
WIRE -128 -656 -128 -688
WIRE 400 -656 400 -688
WIRE -288 -640 -288 -688
WIRE -288 -560 -288 -576
WIRE -128 -560 -128 -576
WIRE 16 -560 -128 -560
WIRE 400 -560 400 -592
WIRE 400 -560 336 -560
WIRE 704 -560 704 -800
WIRE 704 -560 400 -560
WIRE 912 -560 704 -560
WIRE 704 -512 704 -560
WIRE -96 -432 -128 -432
WIRE 16 -432 -16 -432
WIRE 656 -432 336 -432
WIRE 704 -384 704 -416
WIRE -96 -304 -128 -304
WIRE 16 -304 -32 -304
WIRE 912 -304 912 -560
WIRE 912 -304 336 -304
WIRE 912 -288 912 -304
WIRE -96 -176 -304 -176
WIRE 16 -176 -96 -176
WIRE 912 -176 912 -208
WIRE 912 -176 336 -176
WIRE -96 -160 -96 -176
WIRE 912 -144 912 -176
WIRE -304 -80 -304 -96
WIRE -96 -80 -96 -96
WIRE -224 -48 -304 -48
WIRE -96 -48 -144 -48
WIRE 16 -48 -96 -48
WIRE 368 -48 336 -48
WIRE -304 -32 -304 -48
WIRE -96 -32 -96 -48
WIRE 912 -32 912 -64
WIRE 912 -32 704 -32
WIRE 704 0 704 -32
WIRE -304 48 -304 32
WIRE -96 48 -96 32
WIRE 656 80 336 80
WIRE 704 112 704 96
WIRE 400 208 336 208
WIRE 480 208 400 208
WIRE 608 208 608 -688
WIRE 608 208 544 208
WIRE 400 240 400 208
WIRE -336 336 -352 336
WIRE -224 336 -256 336
WIRE 16 336 -224 336
WIRE 400 336 400 304
WIRE 400 336 336 336
WIRE 912 336 912 -32
WIRE 912 336 400 336
WIRE -224 352 -224 336
WIRE 912 448 912 336
WIRE -224 464 -224 432
WIRE 16 464 -224 464
WIRE 864 464 336 464
WIRE 16 592 -176 592
WIRE 912 592 912 544
WIRE 912 592 336 592
WIRE -176 608 -176 592
WIRE 912 608 912 592
WIRE -176 704 -176 688
WIRE -64 720 -112 720
WIRE 16 720 -64 720
WIRE 912 720 912 688
WIRE 912 720 336 720
WIRE 1040 720 912 720
WIRE 1136 720 1040 720
WIRE 1200 720 1136 720
WIRE 1248 720 1200 720
WIRE -64 736 -64 720
WIRE 1040 736 1040 720
WIRE 1136 736 1136 720
WIRE 1248 736 1248 720
WIRE -64 816 -64 800
WIRE 176 816 176 768
WIRE 1040 832 1040 800
WIRE 1136 832 1136 800
WIRE 1248 832 1248 816
WIRE -112 864 -112 720
WIRE 608 864 608 208
WIRE 608 864 -112 864
WIRE -224 896 -224 464
WIRE 912 896 912 720
WIRE 912 896 -224 896
FLAG -288 -1168 0
FLAG 400 -848 0
FLAG 1200 720 OUT
FLAG 704 112 0
FLAG 704 -384 0
FLAG 368 -48 0
FLAG -64 816 0
FLAG -352 336 0
FLAG -304 -80 0
FLAG -128 -432 0
FLAG 176 816 0
FLAG 1136 832 0
FLAG -288 -560 0
FLAG -240 -1312 IN
FLAG 1248 832 0
FLAG -304 48 0
FLAG -96 48 0
FLAG -96 -80 0
FLAG -176 -1088 0
FLAG 1040 832 0
FLAG -128 -304 0
FLAG -176 704 0
FLAG -16 -816 0
FLAG -16 -944 0
SYMBOL voltage -288 -1296 R0
WINDOW 123 0 0 Left 0
WINDOW 39 0 0 Left 0
SYMATTR InstName V1
SYMATTR Value 12
SYMBOL cap 384 -928 R0
SYMATTR InstName C1
SYMATTR Value 22µ
SYMBOL cap 384 -656 R0
SYMATTR InstName C2
SYMATTR Value 220n
SYMBOL res 896 592 R0
SYMATTR InstName R1
SYMATTR Value 2m
SYMBOL ind 896 -160 R0
SYMATTR InstName L1
SYMATTR Value 12µ
SYMBOL nmos 656 -512 R0
SYMATTR InstName Q4
SYMATTR Value BSC032NE2LS
SYMBOL res 896 -304 R0
SYMATTR InstName R2
SYMATTR Value 2m
SYMBOL cap -80 736 R0
SYMATTR InstName C3
SYMATTR Value 4.7µ
SYMBOL res -240 336 R0
SYMATTR InstName R3
SYMATTR Value 155.6K
SYMBOL res -240 320 R90
WINDOW 0 0 56 VBottom 2
WINDOW 3 32 56 VTop 2
SYMATTR InstName R4
SYMATTR Value 14.3K
SYMBOL res -320 -192 R0
WINDOW 3 40 95 Left 2
SYMATTR Value 11K
SYMATTR InstName R5
SYMBOL res 0 -448 R90
WINDOW 0 0 56 VBottom 2
WINDOW 3 32 56 VTop 2
SYMATTR InstName R6
SYMATTR Value 174K
SYMBOL cap 1120 736 R0
SYMATTR InstName C5
SYMATTR Value 220µ
SYMBOL diode 544 192 R90
WINDOW 0 0 32 VBottom 2
WINDOW 3 32 32 VTop 2
SYMATTR InstName D1
SYMATTR Value MURS120
SYMBOL diode 544 -704 R90
WINDOW 0 0 32 VBottom 2
WINDOW 3 32 32 VTop 2
SYMATTR InstName D2
SYMATTR Value MURS120
SYMBOL cap 384 240 R0
SYMATTR InstName C6
SYMATTR Value 220n
SYMBOL cap -304 -640 R0
SYMATTR InstName C7
SYMATTR Value 1µ
SYMBOL res -144 -672 R0
SYMATTR InstName R7
SYMATTR Value 10K
SYMBOL cap -112 -160 R0
WINDOW 0 35 23 Left 2
WINDOW 3 36 65 Left 2
SYMATTR InstName C8
SYMATTR Value 15n
SYMBOL res 1232 720 R0
WINDOW 3 36 68 Left 2
SYMATTR Value 2
SYMATTR InstName R10
SYMBOL res -128 -64 R90
WINDOW 0 0 56 VBottom 2
WINDOW 3 32 56 VTop 2
SYMATTR InstName R11
SYMATTR Value 10K
SYMBOL cap -320 -32 R0
SYMATTR InstName C9
SYMATTR Value 22n
SYMBOL cap -112 -32 R0
SYMATTR InstName C10
SYMATTR Value 330p
SYMBOL nmos 656 -992 M180
SYMATTR InstName M1
SYMATTR Value IPD068N10N3
SYMBOL nmos 656 -896 R0
SYMATTR InstName M2
SYMATTR Value IPD068N10N3
SYMBOL nmos 656 0 R0
SYMATTR InstName M3
SYMATTR Value IPD048N06L3
SYMBOL nmos 864 544 M180
SYMATTR InstName M4
SYMATTR Value IPD048N06L3
SYMBOL res -192 -1312 R0
SYMATTR InstName R13
SYMATTR Value 10K
SYMBOL res -192 -1200 R0
SYMATTR InstName R14
SYMATTR Value 90K
SYMBOL cap 1024 736 R0
SYMATTR InstName C13
SYMATTR Value 47µ
SYMBOL cap -32 -320 R90
WINDOW 0 0 32 VBottom 2
WINDOW 3 32 32 VTop 2
SYMATTR InstName C4
SYMATTR Value 10n
SYMBOL res -192 592 R0
SYMATTR InstName R15
SYMATTR Value 100K
SYMBOL LT8210-1 176 -240 R0
SYMATTR InstName U1
TEXT 96 960 Left 2 !.tran 4m startup
