Version 4.1
SHEET 1 1136 680
WIRE 32 -32 -80 -32
WIRE 96 -32 32 -32
WIRE 512 -32 432 -32
WIRE -80 -16 -80 -32
WIRE 512 -16 512 -32
WIRE 32 64 32 -32
WIRE 96 64 32 64
WIRE 512 64 512 48
WIRE 512 64 432 64
WIRE 608 64 512 64
WIRE 736 64 688 64
WIRE 816 64 736 64
WIRE 912 64 816 64
WIRE -80 80 -80 64
WIRE 912 80 912 64
WIRE 816 96 816 64
WIRE -16 160 -64 160
WIRE 96 160 64 160
WIRE 640 160 736 64
WIRE 640 160 432 160
WIRE 816 192 816 160
WIRE 912 192 912 160
WIRE 736 240 736 64
WIRE -112 256 -128 256
WIRE -16 256 -48 256
WIRE 96 256 64 256
WIRE 96 352 16 352
WIRE 736 352 736 320
WIRE 736 352 432 352
WIRE 16 384 16 352
WIRE 736 384 736 352
WIRE 496 448 432 448
WIRE 592 448 496 448
WIRE 16 480 16 448
WIRE 496 480 496 448
WIRE 592 480 592 448
WIRE 736 496 736 464
WIRE 272 544 272 528
WIRE 496 576 496 544
WIRE 592 576 592 560
FLAG 272 544 0
FLAG -80 80 0
FLAG -64 160 0
FLAG -128 256 0
FLAG 16 480 0
FLAG 496 576 0
FLAG 592 576 0
FLAG 816 192 0
FLAG 736 496 0
FLAG 912 192 0
FLAG -80 -32 vIN
FLAG 912 64 vOUT
SYMBOL voltage -80 -32 R0
WINDOW 123 0 0 Left 0
WINDOW 39 0 0 Left 0
SYMATTR InstName V1
SYMATTR Value 12
SYMBOL res 80 144 R90
WINDOW 0 0 56 VBottom 2
WINDOW 3 32 56 VTop 2
SYMATTR InstName R1
SYMATTR Value 47.5k
SYMBOL cap -48 240 R90
WINDOW 0 0 32 VBottom 2
WINDOW 3 32 32 VTop 2
SYMATTR InstName C1
SYMATTR Value 2.2n
SYMBOL cap 0 384 R0
SYMATTR InstName C2
SYMATTR Value 1µ
SYMBOL cap 480 480 R0
SYMATTR InstName C3
SYMATTR Value 4.7µ
SYMBOL res 80 240 R90
WINDOW 0 0 56 VBottom 2
WINDOW 3 32 56 VTop 2
SYMATTR InstName R2
SYMATTR Value 1.82k
SYMBOL ind 592 80 R270
WINDOW 0 32 56 VTop 2
WINDOW 3 5 56 VBottom 2
SYMATTR InstName L1
SYMATTR Value 3.3µ
SYMATTR SpiceLine Rser=5m
SYMBOL cap 800 96 R0
SYMATTR SpiceLine Rser=2m
SYMATTR InstName C4
SYMATTR Value 150µ
SYMBOL res 720 224 R0
SYMATTR InstName R4
SYMATTR Value 280k
SYMBOL res 720 368 R0
SYMATTR InstName R5
SYMATTR Value 49.9k
SYMBOL res 576 464 R0
SYMATTR InstName R3
SYMATTR Value 33.2k
SYMBOL cap 496 -16 R0
SYMATTR InstName C5
SYMATTR Value 0.1µ
SYMBOL res 896 64 R0
SYMATTR InstName Rload
SYMATTR Value 3.32
SYMBOL LT83201 272 224 R0
SYMATTR InstName U1
TEXT 96 592 Left 2 !.tran 7m startup
