Version 4.1
SHEET 1 1136 680
WIRE -64 -32 -144 -32
WIRE 32 -32 -64 -32
WIRE 96 -32 32 -32
WIRE 496 -32 432 -32
WIRE -144 -16 -144 -32
WIRE 496 -16 496 -32
WIRE 32 64 32 -32
WIRE 96 64 32 64
WIRE 496 64 496 48
WIRE 496 64 432 64
WIRE 592 64 496 64
WIRE 704 64 672 64
WIRE 768 64 704 64
WIRE 832 64 768 64
WIRE 880 64 832 64
WIRE 768 80 768 64
WIRE 880 80 880 64
WIRE -144 96 -144 64
WIRE -16 160 -32 160
WIRE 96 160 64 160
WIRE 624 160 432 160
WIRE 704 160 704 64
WIRE 704 160 624 160
WIRE 768 176 768 144
WIRE 880 176 880 160
WIRE -80 256 -176 256
WIRE 96 256 -80 256
WIRE 496 256 432 256
WIRE 624 256 624 160
WIRE 624 256 576 256
WIRE 704 256 704 160
WIRE -176 272 -176 256
WIRE 96 352 16 352
WIRE 704 352 704 336
WIRE 704 352 432 352
WIRE -176 368 -176 352
WIRE -80 368 -80 256
WIRE 16 368 16 352
WIRE 704 368 704 352
WIRE -176 448 -176 432
WIRE -80 448 -80 432
WIRE 16 448 16 432
WIRE 496 448 432 448
WIRE 592 448 496 448
WIRE 496 464 496 448
WIRE 592 464 592 448
WIRE 704 464 704 448
WIRE 272 544 272 528
WIRE 496 560 496 528
WIRE 592 560 592 544
FLAG 272 544 0
FLAG -144 96 0
FLAG -32 160 0
FLAG -176 448 0
FLAG 16 448 0
FLAG 496 560 0
FLAG 592 560 0
FLAG 768 176 0
FLAG 704 464 0
FLAG 880 176 0
FLAG 832 64 OUT
FLAG -64 -32 IN
FLAG -80 448 0
SYMBOL voltage -144 -32 R0
WINDOW 123 0 0 Left 0
WINDOW 39 0 0 Left 0
SYMATTR InstName V1
SYMATTR Value 12
SYMBOL res 80 144 R90
WINDOW 0 0 56 VBottom 2
WINDOW 3 32 56 VTop 2
SYMATTR InstName R1
SYMATTR Value 47.5K
SYMBOL cap 0 368 R0
SYMATTR InstName C2
SYMATTR Value 1µ
SYMBOL cap 480 464 R0
SYMATTR InstName C3
SYMATTR Value 2.2µ
SYMBOL res 576 448 R0
SYMATTR InstName R2
SYMATTR Value 10K
SYMBOL ind 576 80 R270
WINDOW 0 32 56 VTop 2
WINDOW 3 5 56 VBottom 2
SYMATTR InstName L1
SYMATTR Value 0.47µ
SYMATTR SpiceLine Rser=10m
SYMBOL cap 752 80 R0
SYMATTR SpiceLine Rser=10m
SYMATTR InstName C4
SYMATTR Value 100µ
SYMBOL res 688 240 R0
SYMATTR InstName R4
SYMATTR Value 49.9K
SYMBOL res 688 352 R0
SYMATTR InstName R5
SYMATTR Value 49.9K
SYMBOL res 592 240 R90
WINDOW 0 0 56 VBottom 2
WINDOW 3 32 56 VTop 2
SYMATTR InstName R3
SYMATTR Value 100K
SYMBOL cap 480 -16 R0
SYMATTR InstName C5
SYMATTR Value 0.1µ
SYMBOL res -192 256 R0
SYMATTR InstName R6
SYMATTR Value 499
SYMBOL res 864 64 R0
SYMATTR InstName Rload
SYMATTR Value 1
SYMBOL LT83205 272 224 R0
SYMATTR InstName U1
SYMBOL cap -192 368 R0
SYMATTR InstName C1
SYMATTR Value 10n
SYMBOL cap -96 368 R0
SYMATTR InstName C6
SYMATTR Value 82p
TEXT 184 648 Left 2 !.tran 2.5m startup
