Version 4.1
SHEET 1 2776 1032
WIRE -112 -288 -176 -288
WIRE -48 -288 -112 -288
WIRE 64 -288 -48 -288
WIRE 192 -288 144 -288
WIRE 256 -288 192 -288
WIRE 352 -288 320 -288
WIRE 480 -288 352 -288
WIRE 592 -288 544 -288
WIRE 640 -288 592 -288
WIRE 736 -288 640 -288
WIRE 784 -288 736 -288
WIRE 832 -288 784 -288
WIRE 864 -288 832 -288
WIRE 352 -272 352 -288
WIRE 864 -272 864 -288
WIRE -176 -256 -176 -288
WIRE 784 -256 784 -288
WIRE 352 -176 352 -192
WIRE -176 -160 -176 -176
WIRE 784 -160 784 -192
WIRE 864 -160 864 -192
WIRE 192 -144 192 -288
WIRE 640 -144 640 -288
WIRE -48 -112 -48 -288
WIRE -16 -112 -48 -112
WIRE 592 -112 592 -288
WIRE 592 -112 400 -112
WIRE -48 -32 -48 -112
WIRE -16 -32 -48 -32
WIRE 640 -32 640 -64
WIRE 640 -32 400 -32
WIRE -96 48 -176 48
WIRE -16 48 -32 48
WIRE 480 48 400 48
WIRE 544 48 480 48
WIRE 640 48 640 -32
WIRE 640 48 624 48
WIRE 480 64 480 48
WIRE -160 128 -176 128
WIRE -16 128 -96 128
WIRE 416 128 400 128
WIRE 480 160 480 144
WIRE -96 208 -176 208
WIRE -16 208 -32 208
WIRE 544 208 400 208
WIRE 736 208 736 -288
WIRE 736 208 624 208
WIRE -160 288 -176 288
WIRE -16 288 -80 288
WIRE 432 288 400 288
WIRE 464 288 432 288
WIRE 736 288 736 208
WIRE 736 288 544 288
WIRE -16 368 -176 368
WIRE 432 368 432 288
WIRE 432 368 400 368
WIRE -176 384 -176 368
WIRE -176 480 -176 464
FLAG 352 -176 0
FLAG 832 -288 OUT
FLAG -112 -288 IN
FLAG -176 480 0
FLAG -176 48 0
FLAG -176 128 0
FLAG -176 208 0
FLAG -176 288 0
FLAG -176 -160 0
FLAG 480 160 0
FLAG 416 128 0
FLAG 864 -160 0
FLAG 784 -160 0
SYMBOL schottky 480 -304 M90
WINDOW 0 0 32 VBottom 2
WINDOW 3 32 32 VTop 2
SYMATTR InstName D1
SYMATTR Value MBRS1100
SYMATTR Description Diode
SYMATTR Type diode
SYMBOL LT8495 192 160 R0
SYMATTR InstName U1
SYMBOL voltage -176 368 R0
WINDOW 123 74 56 VTop 2
WINDOW 39 53 56 VTop 2
WINDOW 3 26 98 Left 2
WINDOW 0 28 26 Left 2
SYMATTR Value PULSE(0 2 10n 10n 10n 0.5m 1m)
SYMATTR InstName V2
SYMBOL cap 768 -256 R0
SYMATTR InstName C5
SYMATTR Value 94µ
SYMBOL cap -32 32 R90
WINDOW 0 0 32 VBottom 2
WINDOW 3 32 32 VTop 2
SYMATTR InstName C2
SYMATTR Value 4.7n
SYMBOL cap -96 112 R90
WINDOW 0 0 32 VBottom 2
WINDOW 3 32 32 VTop 2
SYMATTR InstName C3
SYMATTR Value 1n
SYMBOL cap -32 192 R90
WINDOW 0 0 32 VBottom 2
WINDOW 3 32 32 VTop 2
SYMATTR InstName C4
SYMATTR Value 10n
SYMBOL cap 320 -304 R90
WINDOW 0 0 32 VBottom 2
WINDOW 3 32 32 VTop 2
SYMATTR InstName C1
SYMATTR Value 2.2µ
SYMATTR SpiceLine Rser=0.01
SYMBOL res -64 272 R90
WINDOW 0 0 56 VBottom 2
WINDOW 3 32 56 VTop 2
SYMATTR InstName R1
SYMATTR Value 169K
SYMBOL res 640 192 R90
WINDOW 0 0 56 VBottom 2
WINDOW 3 32 56 VTop 2
SYMATTR InstName R2
SYMATTR Value 100K
SYMBOL res 560 272 R90
WINDOW 0 0 56 VBottom 2
WINDOW 3 32 56 VTop 2
SYMATTR InstName R3
SYMATTR Value 100K
SYMBOL res 464 48 R0
SYMATTR InstName R4
SYMATTR Value 316K
SYMBOL res 624 -160 R0
SYMATTR InstName R5
SYMATTR Value 1Meg
SYMBOL ind2 336 -176 M180
WINDOW 0 36 80 Left 2
WINDOW 3 36 40 Left 2
SYMATTR InstName L2
SYMATTR Value 15µ
SYMATTR Type ind
SYMATTR SpiceLine Rser=0.01
SYMBOL ind2 48 -272 R270
WINDOW 0 32 56 VTop 2
WINDOW 3 4 56 VBottom 2
SYMATTR InstName L1
SYMATTR Value 15µ
SYMATTR Type ind
SYMATTR SpiceLine Rser=0.01
SYMBOL voltage -176 -272 R0
WINDOW 123 0 0 Left 2
WINDOW 39 0 0 Left 2
SYMATTR InstName V1
SYMATTR Value 12
SYMBOL res 640 32 R90
WINDOW 0 0 56 VBottom 2
WINDOW 3 32 56 VTop 2
SYMATTR InstName R6
SYMATTR Value 8.87K
SYMBOL res 848 -288 R0
SYMATTR InstName Rload
SYMATTR Value 5
TEXT 544 456 Left 2 !.tran 1.5m startup
TEXT 104 -344 Bottom 2 !K1 L1 L2 0.99
