Version 4.1
SHEET 1 1848 740
WIRE 80 0 -16 0
WIRE 112 0 80 0
WIRE 448 0 400 0
WIRE -16 16 -16 0
WIRE 80 96 80 0
WIRE 112 96 80 96
WIRE 448 96 448 64
WIRE 448 96 400 96
WIRE 512 96 448 96
WIRE 624 96 592 96
WIRE 704 96 624 96
WIRE 816 96 704 96
WIRE 912 96 816 96
WIRE -16 112 -16 96
WIRE 704 112 704 96
WIRE 816 112 816 96
WIRE 912 112 912 96
WIRE 32 192 0 192
WIRE 112 192 96 192
WIRE 432 192 400 192
WIRE 464 192 432 192
WIRE 624 192 624 96
WIRE 624 192 544 192
WIRE 816 208 816 176
WIRE 912 208 912 192
WIRE 112 288 96 288
WIRE 624 288 624 192
WIRE 624 288 400 288
WIRE 624 304 624 288
WIRE 16 384 0 384
WIRE 112 384 96 384
WIRE 624 384 624 368
WIRE 624 384 400 384
WIRE 704 384 704 192
WIRE 704 384 624 384
WIRE 704 400 704 384
WIRE 32 480 0 480
WIRE 112 480 96 480
WIRE 416 480 400 480
WIRE 704 496 704 480
FLAG 0 384 0
FLAG -16 112 0
FLAG 816 208 0
FLAG 704 496 0
FLAG 912 208 0
FLAG 912 96 vOUT
FLAG -16 0 vIN
FLAG 0 480 0
FLAG 0 192 0
FLAG 96 288 0
FLAG 432 192 PG
FLAG 416 480 0
SYMBOL res 112 368 R90
WINDOW 0 0 56 VBottom 2
WINDOW 3 32 56 VTop 2
SYMATTR InstName R1
SYMATTR Value 17.8k
SYMBOL voltage -16 0 R0
WINDOW 123 0 0 Left 2
WINDOW 39 0 0 Left 2
SYMATTR InstName V1
SYMATTR Value 7
SYMBOL ind 496 112 R270
WINDOW 0 32 56 VTop 2
WINDOW 3 5 56 VBottom 2
SYMATTR InstName L1
SYMATTR Value 1µ
SYMATTR SpiceLine Rser=6.3m
SYMBOL cap 800 112 R0
SYMATTR InstName C4
SYMATTR Value 100µ
SYMATTR SpiceLine Rser=2m
SYMBOL res 688 96 R0
SYMATTR InstName R2
SYMATTR Value 1Meg
SYMBOL res 688 384 R0
SYMATTR InstName R3
SYMATTR Value 243k
SYMBOL cap 608 304 R0
SYMATTR InstName C5
SYMATTR Value 4.7p
SYMBOL res 896 96 R0
SYMATTR InstName Rload
SYMATTR Value 0.714
SYMBOL cap 96 496 M270
WINDOW 0 32 32 VTop 2
WINDOW 3 0 32 VBottom 2
SYMATTR InstName C1
SYMATTR Value 1n
SYMBOL LT8647 256 240 R0
SYMATTR InstName U1
SYMBOL cap 432 64 M180
WINDOW 0 24 56 Left 2
WINDOW 3 24 8 Left 2
SYMATTR InstName C2
SYMATTR Value 0.1µ
SYMBOL res 560 176 R90
WINDOW 0 0 56 VBottom 2
WINDOW 3 32 56 VTop 2
SYMATTR InstName R4
SYMATTR Value 100k
SYMBOL cap 96 176 R90
WINDOW 0 0 32 VBottom 2
WINDOW 3 32 32 VTop 2
SYMATTR InstName C3
SYMATTR Value 1µ
TEXT 400 584 Left 2 !.tran 800u startup
