Version 4
SHEET 1 1848 740
WIRE 48 -80 -32 -80
WIRE 80 -80 48 -80
WIRE 256 -80 80 -80
WIRE 432 -80 256 -80
WIRE -32 -64 -32 -80
WIRE 256 -64 256 -80
WIRE 80 0 80 -80
WIRE 112 0 80 0
WIRE 432 0 432 -80
WIRE 432 0 400 0
WIRE -32 32 -32 16
WIRE 112 80 80 80
WIRE 432 80 400 80
WIRE -64 160 -80 160
WIRE 16 160 0 160
WIRE 112 160 96 160
WIRE 32 240 0 240
WIRE 112 240 96 240
WIRE 624 240 400 240
WIRE 432 320 400 320
WIRE 16 400 0 400
WIRE 112 400 96 400
WIRE 432 400 432 384
WIRE 432 400 400 400
WIRE 512 400 432 400
WIRE 624 400 624 240
WIRE 624 400 592 400
WIRE 736 400 624 400
WIRE 832 400 736 400
WIRE 880 400 832 400
WIRE 928 400 880 400
WIRE 736 416 736 400
WIRE 832 416 832 400
WIRE 928 416 928 400
WIRE 32 480 0 480
WIRE 112 480 96 480
WIRE 624 480 400 480
WIRE 736 480 736 464
WIRE 736 480 624 480
WIRE 624 496 624 480
WIRE 832 512 832 480
WIRE 928 512 928 496
WIRE 304 560 304 544
WIRE 624 592 624 576
FLAG 304 560 0
FLAG 0 400 0
FLAG -32 32 0
FLAG 832 512 0
FLAG 624 592 0
FLAG 928 512 0
FLAG 880 400 OUT
FLAG 48 -80 IN
FLAG 80 80 0
FLAG 432 80 0
FLAG 0 480 0
FLAG -80 160 0
FLAG 0 240 0
SYMBOL res 112 384 R90
WINDOW 0 0 56 VBottom 2
WINDOW 3 32 56 VTop 2
SYMATTR InstName R1
SYMATTR Value 41.2K
SYMBOL voltage -32 -80 R0
SYMATTR InstName V1
SYMATTR Value 24
SYMBOL ind 496 416 R270
WINDOW 0 32 56 VTop 2
WINDOW 3 5 56 VBottom 2
SYMATTR InstName L1
SYMATTR Value 3.3µ
SYMATTR SpiceLine Rser=10m
SYMBOL cap 816 416 R0
WINDOW 0 40 17 Left 2
SYMATTR InstName C4
SYMATTR Value 100µ
SYMATTR SpiceLine Rser=2m
SYMBOL res 608 384 R0
SYMATTR InstName R2
SYMATTR Value 1Meg
SYMBOL res 608 480 R0
SYMATTR InstName R3
SYMATTR Value 243K
SYMBOL cap 720 400 R0
WINDOW 0 32 17 Left 2
SYMATTR InstName C5
SYMATTR Value 4.7p
SYMBOL res 912 400 R0
SYMATTR InstName Rload
SYMATTR Value 835m
SYMBOL cap 96 496 M270
WINDOW 0 32 32 VTop 2
WINDOW 3 0 32 VBottom 2
SYMATTR InstName C1
SYMATTR Value 1n
SYMBOL cap 0 144 R90
WINDOW 0 0 32 VBottom 2
WINDOW 3 32 32 VTop 2
SYMATTR InstName C6
SYMATTR Value 330p
SYMBOL res 112 144 R90
WINDOW 0 0 56 VBottom 2
WINDOW 3 32 56 VTop 2
SYMATTR InstName R4
SYMATTR Value 6.49K
SYMBOL cap 96 256 M270
WINDOW 0 32 32 VTop 2
WINDOW 3 0 32 VBottom 2
SYMATTR InstName C2
SYMATTR Value 1µ
SYMBOL cap 416 320 R0
WINDOW 0 32 17 Left 2
SYMATTR InstName C3
SYMATTR Value 0.1µ
SYMBOL LT8643S-2 256 240 R0
SYMATTR InstName U1
TEXT 160 632 Left 2 !.tran 1m startup
