Version 4.1
SHEET 1 1940 1316
WIRE 64 80 -32 80
WIRE 80 80 64 80
WIRE 416 80 368 80
WIRE 528 80 416 80
WIRE 608 80 528 80
WIRE -32 96 -32 80
WIRE 608 96 608 80
WIRE 416 112 416 80
WIRE 528 112 528 80
WIRE -32 192 -32 176
WIRE 528 192 528 176
WIRE 608 192 608 176
WIRE 64 240 64 80
WIRE 80 240 64 240
WIRE 416 240 416 192
WIRE 416 240 368 240
WIRE 416 256 416 240
WIRE 224 304 224 288
WIRE 416 352 416 336
FLAG 224 304 0
FLAG -32 192 0
FLAG 608 192 0
FLAG 608 80 OUT
FLAG -32 80 IN
FLAG 528 192 0
FLAG 416 352 0
SYMBOL voltage -32 80 R0
WINDOW 3 -89 162 Left 2
WINDOW 123 0 0 Left 0
WINDOW 39 0 0 Left 0
SYMATTR Value PWL(0 0 1 6.5)
SYMATTR InstName V1
SYMBOL res 592 80 R0
SYMATTR InstName Rload
SYMATTR Value 34
SYMBOL cap 512 112 R0
SYMATTR InstName C1
SYMATTR Value 1µ
SYMBOL LTC1844-SD 224 160 R0
SYMATTR InstName U1
SYMBOL res 400 96 R0
SYMATTR InstName R2
SYMATTR Value 301k
SYMBOL res 400 240 R0
SYMATTR InstName R3
SYMATTR Value 100k
TEXT 184 368 Left 2 !.tran 1
