Version 4.1
SHEET 1 1940 1316
WIRE 64 80 -32 80
WIRE 80 80 64 80
WIRE 432 80 368 80
WIRE 528 80 432 80
WIRE -32 96 -32 80
WIRE 528 96 528 80
WIRE 432 112 432 80
WIRE -32 192 -32 176
WIRE 432 192 432 176
WIRE 528 192 528 176
WIRE 64 240 64 80
WIRE 80 240 64 240
WIRE 224 304 224 288
FLAG 224 304 0
FLAG -32 192 0
FLAG 528 192 0
FLAG 528 80 OUT
FLAG -32 80 IN
FLAG 432 192 0
SYMBOL voltage -32 80 R0
WINDOW 3 -89 162 Left 2
WINDOW 123 0 0 Left 0
WINDOW 39 0 0 Left 0
SYMATTR Value PWL(0 0 1 6.5)
SYMATTR InstName V1
SYMBOL res 512 80 R0
SYMATTR InstName R1
SYMATTR Value 17
SYMBOL cap 416 112 R0
SYMATTR InstName C1
SYMATTR Value 1µ
SYMBOL LTC1844-2.5 224 160 R0
SYMATTR InstName U1
TEXT 184 368 Left 2 !.tran 1
