Version 4.1
SHEET 1 2312 1272
WIRE -768 -192 -816 -192
WIRE -720 -192 -768 -192
WIRE 16 -192 -720 -192
WIRE 512 -192 16 -192
WIRE -816 -160 -816 -192
WIRE 128 -144 -368 -144
WIRE 752 -144 128 -144
WIRE 128 -128 128 -144
WIRE -816 -64 -816 -80
WIRE 128 -48 128 -64
WIRE 128 -48 -160 -48
WIRE 352 -48 128 -48
WIRE 512 -48 512 -192
WIRE 592 -48 512 -48
WIRE 752 -48 752 -144
WIRE 752 -48 656 -48
WIRE 16 -16 16 -192
WIRE 128 -16 128 -48
WIRE 512 -16 512 -48
WIRE -368 64 -368 -144
WIRE -64 64 -368 64
WIRE 464 64 320 64
WIRE -64 144 -656 144
WIRE 416 144 320 144
WIRE 512 144 512 80
WIRE 512 144 480 144
WIRE 608 144 512 144
WIRE 752 144 752 -48
WIRE 752 144 704 144
WIRE 848 144 752 144
WIRE 944 144 848 144
WIRE 1008 144 944 144
WIRE 1056 144 1008 144
WIRE 944 160 944 144
WIRE 1056 160 1056 144
WIRE -304 224 -528 224
WIRE -64 224 -224 224
WIRE 512 224 512 144
WIRE 512 224 320 224
WIRE -528 256 -528 224
WIRE 688 256 688 192
WIRE 688 256 384 256
WIRE 944 256 944 224
WIRE 1056 256 1056 240
WIRE 512 272 512 224
WIRE -368 304 -368 64
WIRE -64 304 -368 304
WIRE 384 304 384 256
WIRE 384 304 320 304
WIRE -656 320 -656 144
WIRE -528 352 -528 336
WIRE -368 384 -368 304
WIRE -64 384 -368 384
WIRE 384 384 320 384
WIRE 512 384 512 352
WIRE 512 384 384 384
WIRE -656 432 -656 400
WIRE 752 448 752 144
WIRE -160 464 -160 -48
WIRE -64 464 -160 464
WIRE 384 464 384 448
WIRE 384 464 320 464
WIRE 512 464 384 464
WIRE 512 480 512 464
WIRE -64 544 -80 544
WIRE 752 544 752 528
WIRE 752 544 320 544
WIRE 752 560 752 544
WIRE -160 640 -160 464
WIRE 752 656 752 640
WIRE 352 704 352 -48
WIRE 352 704 320 704
WIRE -368 784 -368 384
WIRE -256 784 -368 784
WIRE -160 784 -160 720
WIRE -160 784 -192 784
WIRE -64 784 -160 784
WIRE 352 784 352 704
WIRE 352 784 320 784
WIRE -368 864 -368 784
WIRE -336 864 -368 864
WIRE -192 864 -256 864
WIRE -96 864 -128 864
WIRE -64 864 -96 864
WIRE -368 960 -368 864
WIRE -256 960 -368 960
WIRE -96 960 -96 864
WIRE -96 960 -192 960
WIRE 240 960 240 944
WIRE 16 976 16 944
WIRE -720 1024 -720 -192
WIRE -64 1024 -720 1024
WIRE 128 1024 128 944
WIRE 128 1024 32 1024
WIRE 160 1024 128 1024
WIRE 320 1024 224 1024
WIRE 848 1024 848 144
WIRE 848 1024 320 1024
WIRE -720 1120 -720 1024
WIRE 80 1120 -720 1120
WIRE 320 1120 320 1024
WIRE 320 1120 144 1120
FLAG 944 256 0
FLAG 1056 256 0
FLAG 752 656 0
FLAG 1008 144 OUT
FLAG -816 -64 0
FLAG -768 -192 IN
FLAG -528 352 0
FLAG 512 480 0
FLAG -656 432 0
FLAG 240 960 0
FLAG -80 544 0
SYMBOL nmos 464 -16 R0
WINDOW 0 54 25 Left 2
WINDOW 3 58 63 Left 2
SYMATTR InstName Q1
SYMATTR Value BSC082N10LS
SYMBOL ind 496 256 R0
WINDOW 0 53 9 Top 2
WINDOW 3 59 81 Bottom 2
SYMATTR InstName L1
SYMATTR Value 47µ
SYMATTR SpiceLine Rser=15m
SYMBOL cap 928 160 R0
WINDOW 3 37 47 Left 2
WINDOW 123 37 75 Left 2
WINDOW 0 38 9 Left 2
SYMATTR Value 4.7µ
SYMATTR Value2 m=4
SYMATTR SpiceLine Rser=50m
SYMATTR InstName C1
SYMBOL res 736 432 R0
SYMATTR InstName R1
SYMATTR Value 10K
SYMBOL res 736 544 R0
SYMATTR InstName R2
SYMATTR Value 590K
SYMBOL cap 416 160 R270
WINDOW 0 32 32 VTop 2
WINDOW 3 0 32 VBottom 2
SYMATTR InstName C2
SYMATTR Value 0.1µ
SYMBOL cap 112 -128 R0
SYMATTR InstName C3
SYMATTR Value 0.1µ
SYMBOL cap -128 848 R90
WINDOW 0 0 32 VBottom 2
WINDOW 3 32 32 VTop 2
SYMATTR InstName C4
SYMATTR Value 15n
SYMBOL cap -192 768 R90
WINDOW 0 0 32 VBottom 2
WINDOW 3 32 32 VTop 2
SYMATTR InstName C5
SYMATTR Value 0.01µ
SYMBOL voltage -816 -176 R0
WINDOW 3 20 93 Left 2
SYMATTR Value 48
SYMATTR InstName V1
SYMBOL nmos 608 192 R270
WINDOW 0 51 48 VTop 2
WINDOW 3 -14 74 VLeft 2
SYMATTR InstName Q2
SYMATTR Value BSC082N10LS
SYMBOL res 1040 144 R0
SYMATTR InstName Rload
SYMATTR Value 48
SYMBOL res 496 368 R0
SYMATTR InstName R4
SYMATTR Value 20m
SYMBOL cap 368 384 R0
WINDOW 0 29 15 Left 2
SYMATTR InstName C6
SYMATTR Value 1n
SYMBOL res -208 208 R90
WINDOW 0 0 56 VBottom 2
WINDOW 3 32 56 VTop 2
SYMATTR InstName R5
SYMATTR Value 100K
SYMBOL nmos -64 976 M90
WINDOW 0 -10 62 VLeft 2
WINDOW 3 51 48 VTop 2
SYMATTR InstName Q3
SYMATTR Value Si4482DY
SYMBOL cap 224 1008 R90
WINDOW 0 0 32 VBottom 2
WINDOW 3 32 32 VTop 2
SYMATTR InstName C7
SYMATTR Value 4.7µ
SYMBOL voltage -528 240 R0
SYMATTR Value 5
SYMATTR InstName V3
SYMBOL voltage -656 304 R0
WINDOW 3 24 109 Left 2
SYMATTR Value PWL(0 0 100u 0 +1u 5)
SYMATTR InstName V4
SYMBOL cap 144 1104 R90
WINDOW 0 0 32 VBottom 2
WINDOW 3 32 32 VTop 2
WINDOW 123 60 32 VTop 2
SYMATTR InstName C9
SYMATTR Value 0.1µ
SYMATTR Value2 m=3
SYMBOL cap 656 -64 R90
WINDOW 0 0 32 VBottom 2
WINDOW 3 32 32 VTop 2
WINDOW 123 53 32 VTop 2
SYMATTR InstName C8
SYMATTR Value 4.7µ
SYMATTR Value2 m=2
SYMATTR SpiceLine Rser=50m
SYMBOL res -176 624 R0
SYMATTR InstName R3
SYMATTR Value 301K
SYMBOL LTC3896 128 480 R0
SYMATTR InstName U1
SYMBOL res -240 848 R90
WINDOW 0 0 56 VBottom 2
WINDOW 3 32 56 VTop 2
SYMATTR InstName R6
SYMATTR Value 4.99K
SYMBOL cap -192 944 R90
WINDOW 0 0 32 VBottom 2
WINDOW 3 32 32 VTop 2
SYMATTR InstName C10
SYMATTR Value 100p
TEXT 32 1256 Left 2 !.tran 5m startup
