Version 4.1
SHEET 1 1272 680
WIRE -16 -80 -112 -80
WIRE 128 -80 -16 -80
WIRE 256 -80 128 -80
WIRE 384 -80 256 -80
WIRE -112 -48 -112 -80
WIRE 128 -48 128 -80
WIRE 256 -48 256 -80
WIRE 32 16 16 16
WIRE 416 16 352 16
WIRE 528 16 496 16
WIRE 640 16 528 16
WIRE 736 16 640 16
WIRE 528 32 528 16
WIRE 640 32 640 16
WIRE 736 32 736 16
WIRE -112 48 -112 32
WIRE 528 128 528 112
WIRE 528 128 352 128
WIRE 640 128 640 96
WIRE 736 128 736 112
WIRE 528 144 528 128
WIRE -16 240 -16 -80
WIRE 32 240 -16 240
WIRE 384 240 384 -80
WIRE 384 240 352 240
WIRE 528 240 528 224
WIRE 32 352 16 352
WIRE 384 352 384 240
WIRE 384 352 352 352
WIRE -16 464 -16 240
WIRE 32 464 -16 464
WIRE 368 464 352 464
WIRE 192 544 192 528
FLAG -112 48 0
FLAG 16 16 0
FLAG 16 352 0
FLAG 368 464 0
FLAG 192 544 0
FLAG 640 128 0
FLAG 528 240 0
FLAG 736 128 0
FLAG 736 16 OUT
FLAG -112 -80 IN
SYMBOL voltage -112 -64 R0
SYMATTR InstName V1
SYMATTR Value 3.6
SYMBOL ind 400 32 R270
WINDOW 0 32 56 VTop 2
WINDOW 3 5 56 VBottom 2
SYMATTR InstName L1
SYMATTR Value .22µ
SYMATTR SpiceLine Rser=5m Rpar=5K
SYMBOL cap 624 32 R0
WINDOW 123 31 69 Left 2
WINDOW 3 37 37 Left 2
SYMATTR Value2 x2
SYMATTR Value 47µ
SYMATTR InstName C1
SYMATTR SpiceLine Rser=5m
SYMBOL res 512 16 R0
SYMATTR InstName R1
SYMATTR Value 665K
SYMBOL res 512 128 R0
SYMATTR InstName R2
SYMATTR Value 210K
SYMBOL res 720 16 R0
SYMATTR InstName Rload
SYMATTR Value .41
SYMBOL LTC3616 192 240 R0
SYMATTR InstName U2
TEXT 528 448 Left 2 !.tran 1.2m startup
