Version 4.1
SHEET 1 888 680
WIRE -16 32 -64 32
WIRE 32 32 -16 32
WIRE 208 32 32 32
WIRE 208 48 208 32
WIRE -64 64 -64 32
WIRE 32 112 32 32
WIRE 64 112 32 112
WIRE 384 112 352 112
WIRE 496 112 464 112
WIRE 592 112 496 112
WIRE 704 112 592 112
WIRE 752 112 704 112
WIRE 800 112 752 112
WIRE 496 128 496 112
WIRE 592 128 592 112
WIRE 704 128 704 112
WIRE 800 128 800 112
WIRE -64 160 -64 144
WIRE 32 208 -64 208
WIRE 64 208 32 208
WIRE 496 208 352 208
WIRE 592 208 592 192
WIRE 592 208 496 208
WIRE -64 224 -64 208
WIRE 496 224 496 208
WIRE 704 224 704 192
WIRE 800 224 800 208
WIRE -64 304 -64 288
WIRE 32 304 32 208
WIRE 64 304 32 304
WIRE 496 320 496 304
WIRE 160 384 160 368
WIRE 256 384 256 368
FLAG 160 384 0
FLAG 256 384 0
FLAG -64 304 0
FLAG -64 160 0
FLAG 496 320 0
FLAG 704 224 0
FLAG 800 224 0
FLAG -16 32 IN
FLAG 752 112 OUT
SYMBOL cap -80 224 R0
SYMATTR InstName C1
SYMATTR Value 2.2µ
SYMBOL voltage -64 48 R0
SYMATTR InstName V1
SYMATTR Value 12
SYMBOL ind 368 128 R270
WINDOW 0 32 56 VTop 2
WINDOW 3 5 56 VBottom 2
SYMATTR InstName L1
SYMATTR Value 3.3µ
SYMATTR SpiceLine Rser=10m
SYMBOL res 480 112 R0
SYMATTR InstName R1
SYMATTR Value 619K
SYMBOL cap 576 128 R0
SYMATTR InstName C2
SYMATTR Value 15p
SYMBOL res 480 208 R0
SYMATTR InstName R2
SYMATTR Value 84.5K
SYMBOL cap 688 128 R0
SYMATTR InstName C3
SYMATTR Value 47µ
SYMATTR SpiceLine Rser=5m
SYMBOL res 784 112 R0
SYMATTR InstName Rload
SYMATTR Value 2.5
SYMBOL LTC3624 208 208 R0
SYMATTR InstName U1
TEXT 96 456 Left 2 !.tran 1.5m startup
