Version 4.1
SHEET 1 984 680
WIRE 16 -144 -48 -144
WIRE 144 -144 96 -144
WIRE 560 -144 272 -144
WIRE 752 -144 560 -144
WIRE 816 -144 752 -144
WIRE 880 -144 816 -144
WIRE 560 -128 560 -144
WIRE 752 -128 752 -144
WIRE 880 -128 880 -144
WIRE 144 -96 144 -144
WIRE 272 -96 272 -144
WIRE 752 -48 752 -64
WIRE -48 -32 -48 -144
WIRE -48 -32 -112 -32
WIRE 0 -32 -48 -32
WIRE 32 -32 0 -32
WIRE 560 -32 560 -48
WIRE 560 -32 384 -32
WIRE 880 -32 880 -48
WIRE 560 -16 560 -32
WIRE -112 0 -112 -32
WIRE 0 64 0 -32
WIRE 32 64 0 64
WIRE 432 64 384 64
WIRE 560 80 560 64
WIRE -112 96 -112 80
WIRE 432 112 432 64
WIRE 640 112 432 112
WIRE 816 112 816 -144
WIRE 816 112 720 112
WIRE 0 160 0 64
WIRE 32 160 0 160
WIRE 816 160 816 112
WIRE 816 160 384 160
WIRE 0 256 0 160
WIRE 32 256 0 256
WIRE 432 256 384 256
WIRE 560 256 512 256
WIRE 752 256 560 256
WIRE 816 256 752 256
WIRE 880 256 816 256
WIRE 560 272 560 256
WIRE 752 272 752 256
WIRE 880 272 880 256
WIRE -144 352 -272 352
WIRE -64 352 -144 352
WIRE 32 352 -64 352
WIRE 560 352 384 352
WIRE 752 352 752 336
WIRE -272 368 -272 352
WIRE -144 368 -144 352
WIRE -64 368 -64 352
WIRE 560 368 560 352
WIRE 880 368 880 352
WIRE 32 448 -64 448
WIRE 432 448 384 448
WIRE -272 464 -272 448
WIRE -144 464 -144 432
WIRE -64 464 -64 448
WIRE 560 464 560 448
WIRE 432 496 432 448
WIRE 640 496 432 496
WIRE 816 496 816 256
WIRE 816 496 720 496
WIRE 144 528 144 512
WIRE 272 528 272 512
WIRE -64 560 -64 544
FLAG -112 96 0
FLAG 144 528 0
FLAG 272 528 0
FLAG 560 80 0
FLAG 752 -48 0
FLAG 880 -32 0
FLAG 880 -144 OUT1
FLAG -112 -32 IN
FLAG 560 464 0
FLAG 752 352 0
FLAG 880 368 0
FLAG 880 256 OUT2
FLAG -64 560 0
FLAG -144 464 0
FLAG -272 464 0
FLAG -272 352 OUT3
SYMBOL voltage -112 -16 R0
SYMATTR InstName V1
SYMATTR Value 2
SYMBOL res 544 -144 R0
SYMATTR InstName R1
SYMATTR Value 1.87Meg
SYMBOL res 544 -32 R0
SYMATTR InstName R2
SYMATTR Value 1.07Meg
SYMBOL cap 736 -128 R0
SYMATTR InstName C1
SYMATTR Value 10µ
SYMATTR SpiceLine V=6.3 Irms=0 Rser=0 Lser=0 mfg="Murata" pn="GRM188R60J106ME84" type="X5R"
SYMBOL res 544 256 R0
SYMATTR InstName R3
SYMATTR Value 2Meg
SYMBOL res 544 352 R0
SYMATTR InstName R4
SYMATTR Value 1Meg
SYMBOL cap 736 272 R0
SYMATTR InstName C2
SYMATTR Value 10µ
SYMATTR SpiceLine V=4 Irms=0 Rser=0 Lser=0 mfg="Murata" pn="GRM188R60G106ME47" type="X5R"
SYMBOL PowerProducts\\LTC3100 208 208 R0
SYMATTR InstName U1
SYMBOL ind 0 -128 R270
WINDOW 0 32 56 VTop 2
WINDOW 3 5 56 VBottom 2
SYMATTR InstName L1
SYMATTR Value 3.3µ
SYMATTR SpiceLine Rser=5m
SYMBOL res 736 96 R90
WINDOW 0 0 56 VBottom 2
WINDOW 3 32 56 VTop 2
SYMATTR InstName R5
SYMATTR Value 1Meg
SYMBOL ind 416 272 R270
WINDOW 0 32 56 VTop 2
WINDOW 3 5 56 VBottom 2
SYMATTR InstName L2
SYMATTR Value 4.7µ
SYMATTR SpiceLine Rser=5m
SYMBOL res 736 480 R90
WINDOW 0 0 56 VBottom 2
WINDOW 3 32 56 VTop 2
SYMATTR InstName R6
SYMATTR Value 1Meg
SYMBOL res -80 352 R0
SYMATTR InstName R7
SYMATTR Value 102K
SYMBOL res -80 448 R0
SYMATTR InstName R8
SYMATTR Value 25.5K
SYMBOL cap -160 368 R0
SYMATTR InstName C3
SYMATTR Value 2.2µ
SYMATTR SpiceLine V=6.3 Irms=0 Rser=0 Lser=0 mfg="Murata" pn="GRM155R60J225ME15" type="X5R"
SYMBOL res 864 -144 R0
SYMATTR InstName Rload1
SYMATTR Value 33
SYMBOL res 864 256 R0
SYMATTR InstName Rload2
SYMATTR Value 9
SYMBOL res -288 352 R0
SYMATTR InstName Rload3
SYMATTR Value 60
TEXT 664 576 Left 2 !.tran 3m startup
