Version 4.1
SHEET 1 1624 864
WIRE 816 -400 -16 -400
WIRE 1312 -400 816 -400
WIRE 1376 -400 1312 -400
WIRE 1440 -400 1376 -400
WIRE 1488 -400 1440 -400
WIRE 1488 -384 1488 -400
WIRE 608 -368 144 -368
WIRE 1376 -368 1376 -400
WIRE 608 -288 608 -368
WIRE 64 -272 48 -272
WIRE 144 -272 144 -368
WIRE 144 -272 128 -272
WIRE 176 -272 144 -272
WIRE 1376 -272 1376 -304
WIRE 1488 -272 1488 -304
WIRE 816 -256 816 -400
WIRE -16 -176 -16 -400
WIRE 176 -176 -16 -176
WIRE 768 -176 544 -176
WIRE 608 -80 608 -224
WIRE 608 -80 544 -80
WIRE 608 -64 608 -80
WIRE 176 16 144 16
WIRE 608 16 608 0
WIRE 608 16 544 16
WIRE 816 16 816 -160
WIRE 816 16 608 16
WIRE 880 16 816 16
WIRE 1008 16 960 16
WIRE 1024 16 1008 16
WIRE 1120 16 1104 16
WIRE 1184 16 1120 16
WIRE 1216 16 1184 16
WIRE 816 32 816 16
WIRE 1216 32 1216 16
WIRE 176 112 144 112
WIRE 768 112 544 112
WIRE 1216 128 1216 112
WIRE 816 176 816 128
WIRE 80 208 64 208
WIRE 176 208 144 208
WIRE 1120 208 1120 16
WIRE 1120 208 544 208
WIRE 1312 288 1312 -400
WIRE 176 304 -32 304
WIRE 1008 304 1008 16
WIRE 1008 304 544 304
WIRE -32 368 -32 304
WIRE 80 368 -32 368
WIRE -32 384 -32 368
WIRE 176 400 144 400
WIRE 1312 400 1312 368
WIRE 1312 400 544 400
WIRE 1312 416 1312 400
WIRE -32 480 -32 464
WIRE 80 480 80 368
WIRE 1312 512 1312 496
WIRE -32 576 -32 544
WIRE 80 576 80 544
FLAG 48 -272 0
FLAG 1216 128 0
FLAG 1376 -272 0
FLAG 1488 -272 0
FLAG 1440 -400 OUT
FLAG 1184 16 IN
FLAG 1312 512 0
FLAG 64 208 0
FLAG -32 576 0
FLAG 816 176 0
FLAG 144 112 0
FLAG 144 400 0
FLAG 144 16 0
FLAG 80 576 0
SYMBOL cap 128 -288 R90
WINDOW 3 32 32 VTop 2
WINDOW 0 0 32 VBottom 2
SYMATTR Value 4.7µ
SYMATTR InstName C1
SYMBOL voltage 1216 16 R0
SYMATTR InstName V1
SYMATTR Value 10
SYMBOL cap 1360 -368 R0
SYMATTR InstName C2
SYMATTR Value 220µ
SYMATTR SpiceLine Rser=5m
SYMBOL res 1296 400 R0
SYMATTR InstName R1
SYMATTR Value 12.1K
SYMBOL res 1296 272 R0
SYMATTR InstName R2
SYMATTR Value 232K
SYMBOL cap 144 192 R90
WINDOW 0 0 32 VBottom 2
WINDOW 3 32 32 VTop 2
SYMATTR InstName C3
SYMATTR Value 0.05µ
SYMBOL res 1120 0 R90
WINDOW 0 0 56 VBottom 2
WINDOW 3 32 56 VTop 2
SYMATTR InstName R3
SYMATTR Value 4m
SYMBOL ind 976 32 M270
WINDOW 0 32 56 VTop 2
WINDOW 3 5 56 VBottom 2
SYMATTR InstName L1
SYMATTR Value 3.3µ
SYMATTR SpiceLine Rser=2m
SYMBOL nmos 768 -256 R0
WINDOW 0 56 21 Left 2
WINDOW 3 61 66 Left 2
SYMATTR InstName Q1
SYMATTR Value Si4840DY
SYMBOL nmos 768 32 R0
WINDOW 0 57 33 Left 2
WINDOW 3 62 73 Left 2
SYMATTR InstName Q2
SYMATTR Value Si4840DY
SYMBOL cap 592 -64 R0
SYMATTR InstName C5
SYMATTR Value .1µ
SYMBOL schottky 592 -288 R0
WINDOW 3 23 69 Left 2
SYMATTR Value MBR0540
SYMATTR InstName D1
SYMATTR Description Diode
SYMATTR Type diode
SYMBOL res 1472 -400 R0
SYMATTR InstName Rload
SYMATTR Value 4.8
SYMBOL LTC3786 352 64 R0
SYMATTR InstName U1
SYMBOL res -48 368 R0
SYMATTR InstName R4
SYMATTR Value 8.66K
SYMBOL cap 64 480 R0
SYMATTR InstName C6
SYMATTR Value 220p
SYMBOL cap -48 480 R0
SYMATTR InstName C4
SYMATTR Value 15n
TEXT 272 608 Left 2 !.tran 8m startup
