Version 4.1
SHEET 1 1068 848
WIRE -672 -288 -768 -288
WIRE -464 -288 -672 -288
WIRE -352 -288 -464 -288
WIRE -96 -288 -256 -288
WIRE -48 -288 -96 -288
WIRE 176 -288 -48 -288
WIRE 192 -288 176 -288
WIRE 288 -288 272 -288
WIRE 464 -288 288 -288
WIRE 528 -288 464 -288
WIRE 592 -288 528 -288
WIRE 656 -288 592 -288
WIRE -96 -272 -96 -288
WIRE 528 -272 528 -288
WIRE 656 -272 656 -288
WIRE -768 -256 -768 -288
WIRE 176 -240 176 -288
WIRE -144 -192 -160 -192
WIRE -48 -176 -48 -288
WIRE -16 -176 -48 -176
WIRE 64 -176 48 -176
WIRE 528 -176 528 -208
WIRE 656 -176 656 -192
WIRE -768 -160 -768 -176
WIRE -96 -160 -96 -176
WIRE -368 -112 -400 -112
WIRE 64 -112 64 -176
WIRE 64 -112 -304 -112
WIRE 176 -112 176 -160
WIRE 192 -112 176 -112
WIRE 288 -112 288 -288
WIRE 288 -112 256 -112
WIRE 176 -16 176 -112
WIRE 192 -16 176 -16
WIRE 288 -16 288 -112
WIRE 288 -16 272 -16
WIRE -272 48 -272 -240
WIRE -160 48 -160 -192
WIRE -48 48 -48 -176
WIRE 64 48 64 -112
WIRE 176 48 176 -16
WIRE 288 48 288 -16
WIRE -464 112 -464 -288
WIRE -352 112 -464 112
WIRE 464 112 464 -288
WIRE -464 208 -464 112
WIRE -352 208 -464 208
WIRE 464 208 464 192
WIRE 464 208 368 208
WIRE 464 224 464 208
WIRE -400 304 -400 -112
WIRE -400 304 -464 304
WIRE -352 304 -400 304
WIRE 384 304 368 304
WIRE -464 320 -464 304
WIRE 464 320 464 304
WIRE -464 400 -464 384
WIRE -352 400 -368 400
WIRE 384 400 368 400
WIRE 288 480 288 464
WIRE 448 480 288 480
WIRE -272 496 -272 464
WIRE -160 496 -160 464
WIRE 64 496 64 464
WIRE 176 496 176 464
WIRE 288 496 288 480
WIRE 448 496 448 480
WIRE 288 576 288 560
WIRE -272 592 -272 576
WIRE -160 592 -160 560
WIRE 64 592 64 560
WIRE 176 592 176 560
WIRE 448 624 448 560
WIRE 288 672 288 656
FLAG -768 -160 0
FLAG -96 -160 0
FLAG 528 -176 0
FLAG 656 -176 0
FLAG 384 400 0
FLAG 384 304 0
FLAG -368 400 0
FLAG -160 592 0
FLAG 64 592 0
FLAG -464 400 0
FLAG 176 592 0
FLAG 464 320 0
FLAG -272 592 0
FLAG 288 672 0
FLAG -672 -288 IN
FLAG 592 -288 OUT
FLAG 448 624 0
SYMBOL voltage -768 -272 R0
WINDOW 3 29 95 Left 2
WINDOW 123 79 128 Left 2
SYMATTR Value PWL(0 0 20u 28
SYMATTR Value2 30m 28 35m 100)
SYMATTR InstName V1
SYMBOL nmos -352 -240 R270
WINDOW 0 82 49 VTop 2
WINDOW 3 55 48 VTop 2
WINDOW 123 -9 72 VLeft 2
SYMATTR InstName M1
SYMATTR Value Si7336ADP
SYMATTR Value2 m=2
SYMBOL nmos -144 -272 R0
WINDOW 3 48 -24 Bottom 2
WINDOW 0 47 -51 Bottom 2
SYMATTR Value Si7336ADP
SYMATTR InstName M2
SYMBOL ind 176 -272 R270
WINDOW 0 32 56 VTop 2
WINDOW 3 5 56 VBottom 2
SYMATTR InstName L1
SYMATTR Value 6.8µ
SYMATTR Value2 Rser=1.5m
SYMBOL cap 512 -272 R0
SYMATTR InstName C1
SYMATTR Value 100µ
SYMBOL res 640 -288 R0
SYMATTR InstName Rload
SYMATTR Value 2
SYMBOL res 448 96 R0
SYMATTR InstName R3
SYMATTR Value 1Meg
SYMBOL res 448 208 R0
SYMATTR InstName R4
SYMATTR Value 24.3K
SYMBOL cap -480 320 R0
SYMATTR InstName C2
SYMATTR Value 4.7µ
SYMBOL cap -176 560 M180
WINDOW 0 24 56 Left 2
WINDOW 3 24 8 Left 2
SYMATTR InstName C3
SYMATTR Value 0.1µ
SYMBOL cap 48 560 M180
WINDOW 0 24 56 Left 2
WINDOW 3 24 8 Left 2
SYMATTR InstName C4
SYMATTR Value 0.1µ
SYMBOL cap 160 560 M180
WINDOW 0 24 56 Left 2
WINDOW 3 24 8 Left 2
SYMATTR InstName C5
SYMATTR Value 1µ
SYMBOL res -288 480 R0
SYMATTR InstName R5
SYMATTR Value 36.5K
SYMBOL cap 272 560 M180
WINDOW 0 31 56 Left 2
WINDOW 3 34 9 Left 2
SYMATTR InstName C6
SYMATTR Value 6.8n
SYMBOL cap 48 -192 R90
WINDOW 0 0 32 VBottom 2
WINDOW 3 32 32 VTop 2
SYMATTR InstName C7
SYMATTR Value 0.47µ
SYMBOL diode -368 -96 R270
WINDOW 0 32 32 VTop 2
WINDOW 3 0 32 VBottom 2
SYMATTR InstName D1
SYMATTR Value 1N5818
SYMBOL res 160 -256 R0
SYMATTR InstName R1
SYMATTR Value 2K
SYMBOL cap 256 -128 R90
WINDOW 0 0 32 VBottom 2
WINDOW 3 32 32 VTop 2
SYMATTR InstName C8
SYMATTR Value 2.2µ
SYMBOL LTC7862 0 256 R0
SYMATTR InstName U1
SYMBOL res 272 560 R0
SYMATTR InstName R7
SYMATTR Value 4.75K
SYMBOL cap 432 496 R0
SYMATTR InstName C9
SYMATTR Value 100p
SYMBOL res 288 -32 R90
WINDOW 0 0 56 VBottom 2
WINDOW 3 32 56 VTop 2
SYMATTR InstName R2
SYMATTR Value 2.2K
TEXT 288 736 Left 2 !.tran 36m startup
