Version 4.1
SHEET 1 1916 704
WIRE 448 -960 448 -976
WIRE 224 -928 -864 -928
WIRE 336 -928 224 -928
WIRE -112 -880 -112 -896
WIRE 336 -880 336 -928
WIRE 448 -880 448 -896
WIRE 784 -880 784 -912
WIRE -448 -784 -560 -784
WIRE 112 -784 0 -784
WIRE 784 -784 784 -800
WIRE 784 -784 672 -784
WIRE 1120 -768 1008 -768
WIRE -560 -752 -560 -784
WIRE -448 -752 -448 -784
WIRE -336 -752 -336 -768
WIRE -112 -752 -112 -800
WIRE 0 -752 0 -784
WIRE 112 -752 112 -784
WIRE 224 -752 224 -928
WIRE 336 -752 336 -800
WIRE 448 -752 448 -800
WIRE 672 -752 672 -784
WIRE 784 -752 784 -784
WIRE 1008 -752 1008 -768
WIRE 1120 -752 1120 -768
WIRE -1024 -672 -1120 -672
WIRE -896 -672 -1024 -672
WIRE -672 -672 -896 -672
WIRE -1024 -624 -1024 -672
WIRE -784 -576 -832 -576
WIRE -672 -576 -720 -576
WIRE 1264 -576 1232 -576
WIRE 1392 -576 1264 -576
WIRE 1520 -576 1392 -576
WIRE 1632 -576 1520 -576
WIRE 1392 -544 1392 -576
WIRE 1520 -544 1520 -576
WIRE -1120 -512 -1120 -672
WIRE -1024 -512 -1024 -560
WIRE 1264 -480 1264 -576
WIRE 1264 -480 1232 -480
WIRE 1392 -432 1392 -480
WIRE 1520 -432 1520 -464
WIRE -1120 -384 -1120 -432
WIRE -896 -384 -896 -672
WIRE -672 -384 -896 -384
WIRE 1264 -384 1232 -384
WIRE -864 -288 -864 -928
WIRE -672 -288 -864 -288
WIRE 1264 -288 1232 -288
WIRE -864 -192 -864 -288
WIRE -672 -192 -864 -192
WIRE -896 -96 -896 -384
WIRE -672 -96 -896 -96
WIRE 1264 -96 1232 -96
WIRE 1392 -96 1264 -96
WIRE 1520 -96 1392 -96
WIRE 1552 -96 1520 -96
WIRE 1392 -64 1392 -96
WIRE 1520 -64 1520 -96
WIRE -672 0 -864 0
WIRE 1264 0 1264 -96
WIRE 1264 0 1232 0
WIRE -784 96 -832 96
WIRE -704 96 -720 96
WIRE -672 96 -704 96
WIRE 1392 96 1392 0
WIRE 1392 96 1232 96
WIRE 1520 96 1520 16
WIRE 1520 96 1392 96
WIRE -896 192 -896 -96
WIRE -672 192 -896 192
WIRE 1392 192 1392 96
WIRE 1392 192 1232 192
WIRE -864 288 -864 0
WIRE -672 288 -864 288
WIRE 1264 288 1232 288
WIRE -336 384 -336 368
WIRE -560 400 -560 368
WIRE -448 400 -448 368
WIRE -448 400 -560 400
WIRE -112 400 -112 368
WIRE 0 400 0 368
WIRE 144 400 144 368
WIRE 144 400 0 400
WIRE 288 400 288 368
WIRE 288 400 144 400
WIRE 432 400 432 368
WIRE 560 400 560 368
WIRE 560 400 432 400
WIRE 672 400 672 368
WIRE 784 400 784 368
WIRE 784 400 672 400
WIRE -896 416 -896 192
WIRE -704 416 -704 96
WIRE 672 432 672 400
WIRE 784 432 784 400
WIRE -896 544 -896 480
WIRE -704 544 -704 480
WIRE -704 544 -896 544
WIRE -112 544 -112 480
WIRE -112 544 -704 544
WIRE 784 544 784 512
WIRE 784 544 -112 544
WIRE 1008 544 1008 368
WIRE 1008 544 784 544
WIRE 1120 544 1120 368
WIRE 1120 544 1008 544
WIRE 1392 544 1392 192
WIRE 1392 544 1120 544
WIRE 672 592 672 512
WIRE 1632 592 1632 -576
WIRE 1632 592 672 592
FLAG -1120 -384 0
FLAG 1264 288 0
FLAG 448 -976 0
FLAG 784 -912 0
FLAG -336 384 0
FLAG -336 -768 0
FLAG 1520 -576 OUT1
FLAG 1520 -432 0
FLAG 1392 -432 0
FLAG 1264 -384 0
FLAG 1264 -288 0
FLAG 1552 -96 0
FLAG 1520 96 OUT2
FLAG -1120 -672 IN
FLAG -832 -576 0
FLAG -112 -896 0
FLAG -1024 -512 0
FLAG -832 96 0
SYMBOL voltage -1120 -528 R0
SYMATTR InstName V1
SYMATTR Value 24
SYMBOL cap 1376 -544 R0
WINDOW 123 26 78 Left 2
SYMATTR Value2 m=2
SYMATTR InstName C1
SYMATTR Value 22µ
SYMBOL res 1504 -560 R0
SYMATTR InstName R2
SYMATTR Value 3
SYMBOL cap 432 -896 M180
WINDOW 0 24 56 Left 2
WINDOW 3 24 8 Left 2
WINDOW 123 24 -34 Left 2
WINDOW 39 24 -13 Left 2
SYMATTR InstName C3
SYMATTR Value 10n
SYMBOL res 768 416 R0
SYMATTR InstName R1
SYMATTR Value 9.6K
SYMBOL res 768 -896 R0
SYMATTR InstName R3
SYMATTR Value 240K
SYMBOL cap 1376 -64 R0
WINDOW 123 27 86 Left 2
SYMATTR Value2 m=2
SYMATTR InstName C2
SYMATTR Value 47µ
SYMBOL res 1504 -80 R0
SYMATTR InstName R4
SYMATTR Value 4.15
SYMBOL res 320 -896 R0
SYMATTR InstName R5
SYMATTR Value 250K
SYMBOL cap -720 -592 R90
WINDOW 0 0 32 VBottom 2
WINDOW 3 32 32 VTop 2
SYMATTR InstName C5
SYMATTR Value 4.7µ
SYMBOL res -128 384 R0
SYMATTR InstName R6
SYMATTR Value 124K
SYMBOL res -128 -784 M180
WINDOW 0 36 76 Left 2
WINDOW 3 36 40 Left 2
SYMATTR InstName R7
SYMATTR Value 124K
SYMBOL res 432 -896 R0
SYMATTR InstName R8
SYMATTR Value 499
SYMBOL res 656 416 R0
SYMATTR InstName R9
SYMATTR Value 10K
SYMBOL cap -720 80 R90
WINDOW 0 0 32 VBottom 2
WINDOW 3 32 32 VTop 2
SYMATTR InstName C4
SYMATTR Value 4.7µ
SYMBOL cap -912 416 R0
SYMATTR InstName C6
SYMATTR Value 4.7µ
SYMBOL cap -1040 -624 R0
SYMATTR InstName C7
SYMATTR Value 4.7µ
SYMBOL cap -720 416 R0
SYMATTR InstName C8
SYMATTR Value 4.7µ
SYMBOL LTM4655 272 -192 R0
SYMATTR InstName U1
TEXT 296 688 Left 2 !.tran 3m startup
