Version 4.1
SHEET 1 2216 900
WIRE -368 -768 -544 -768
WIRE -320 -768 -368 -768
WIRE 0 -768 -32 -768
WIRE 80 -768 0 -768
WIRE 192 -768 80 -768
WIRE 336 -768 192 -768
WIRE 496 -768 336 -768
WIRE 496 -752 496 -768
WIRE 80 -736 80 -768
WIRE 336 -736 336 -768
WIRE -544 -704 -544 -768
WIRE -368 -672 -368 -768
WIRE -320 -672 -368 -672
WIRE 0 -672 0 -768
WIRE 0 -672 -32 -672
WIRE 192 -656 192 -768
WIRE 336 -640 336 -672
WIRE 496 -640 496 -672
WIRE -544 -608 -544 -624
WIRE -368 -576 -368 -672
WIRE -320 -576 -368 -576
WIRE 80 -576 80 -656
WIRE 80 -576 -32 -576
WIRE -448 -480 -496 -480
WIRE -320 -480 -368 -480
WIRE 192 -480 192 -576
WIRE 192 -480 -32 -480
WIRE -320 -384 -368 -384
WIRE -368 -288 -368 -384
WIRE -320 -288 -368 -288
WIRE 144 -288 -32 -288
WIRE 240 -288 144 -288
WIRE 144 -144 144 -288
WIRE 240 -144 240 -288
WIRE 16 -96 -32 -96
WIRE 16 0 16 -96
WIRE 16 0 -32 0
WIRE -176 80 -176 48
WIRE 16 80 16 0
WIRE 16 80 -176 80
WIRE 144 80 144 -80
WIRE 144 80 16 80
WIRE 240 80 240 -64
WIRE 240 80 144 80
WIRE -176 112 -176 80
FLAG -544 -608 0
FLAG -496 -480 0
FLAG 496 -640 0
FLAG 496 -768 OUT
FLAG -544 -768 IN
FLAG 336 -640 0
FLAG -176 112 0
SYMBOL voltage -544 -720 R0
SYMATTR InstName V1
SYMATTR Value 12
SYMBOL res -352 -496 R90
WINDOW 0 0 56 VBottom 2
WINDOW 3 32 56 VTop 2
SYMATTR InstName R1
SYMATTR Value 137k
SYMBOL res 480 -768 R0
SYMATTR InstName Rload
SYMATTR Value 0.248
SYMBOL res 176 -672 R0
SYMATTR InstName R3
SYMATTR Value 49.9k
SYMBOL cap 320 -736 R0
WINDOW 3 34 31 Left 2
WINDOW 123 34 59 Left 2
SYMATTR Value 100µ
SYMATTR Value2 x2
SYMATTR SpiceLine Rser=5m
SYMATTR InstName C2
SYMBOL res 64 -752 R0
SYMATTR InstName R5
SYMATTR Value 100k
SYMBOL cap 128 -144 R0
SYMATTR InstName C4
SYMATTR Value 1µ
SYMBOL res 224 -160 R0
SYMATTR InstName R6
SYMATTR Value 10k
SYMBOL LTM4732 -176 -512 R0
SYMATTR InstName U1
TEXT 416 24 Left 2 !.tran 1.2m startup
