Version 4.1
SHEET 1 1784 708
WIRE 0 -272 0 -288
WIRE 0 -192 0 -208
WIRE 160 -192 0 -192
WIRE 0 -160 0 -192
WIRE 160 -160 160 -192
WIRE -192 -96 -304 -96
WIRE -96 -96 -192 -96
WIRE 672 -96 576 -96
WIRE 736 -96 672 -96
WIRE 848 -96 736 -96
WIRE -304 -64 -304 -96
WIRE 736 -64 736 -96
WIRE 848 -64 848 -96
WIRE -192 -32 -192 -96
WIRE -304 48 -304 16
WIRE 736 48 736 0
WIRE 848 48 848 16
WIRE -192 96 -192 48
WIRE -96 96 -192 96
WIRE -176 192 -192 192
WIRE -96 192 -112 192
WIRE 672 192 672 -96
WIRE 672 192 576 192
WIRE 672 208 672 192
WIRE 672 288 672 272
WIRE 672 288 576 288
WIRE 672 304 672 288
WIRE -96 384 -128 384
WIRE 592 384 576 384
WIRE 672 400 672 384
WIRE -128 480 -128 384
WIRE -96 480 -128 480
WIRE 592 480 576 480
WIRE 240 560 240 544
WIRE 432 560 432 544
FLAG 240 560 0
FLAG 432 560 0
FLAG 592 480 0
FLAG -304 48 0
FLAG -192 192 0
FLAG 0 -288 0
FLAG -304 -96 vIN
FLAG 848 -96 vOUT
FLAG 848 48 0
FLAG 592 384 0
FLAG 672 400 0
FLAG 736 48 0
SYMBOL res -208 -48 R0
SYMATTR InstName R2
SYMATTR Value 150K
SYMBOL voltage -304 -80 R0
SYMATTR InstName V1
SYMATTR Value 12
SYMBOL cap -112 176 R90
WINDOW 0 0 32 VBottom 2
WINDOW 3 32 32 VTop 2
SYMATTR InstName C1
SYMATTR Value 5.1n
SYMBOL cap -16 -208 M180
WINDOW 0 24 56 Left 2
WINDOW 3 24 8 Left 2
SYMATTR InstName C2
SYMATTR Value 2.2µ
SYMBOL cap 720 -64 R0
WINDOW 123 27 83 Left 2
SYMATTR Value2 m=4
SYMATTR InstName C3
SYMATTR Value 220µ
SYMATTR SpiceLine Rser=4m
SYMBOL res 656 288 R0
SYMATTR InstName R5
SYMATTR Value 6.65k
SYMBOL res 832 -80 R0
SYMATTR InstName Rload
SYMATTR Value 75m
SYMBOL cap 656 208 R0
SYMATTR InstName C7
SYMATTR Value 100p
SYMBOL LTM4640 240 192 R0
SYMATTR InstName U1
TEXT 576 576 Left 2 !.tran 1m startup
