Version 4.1
SHEET 1 1944 5768
WIRE -1696 992 -1776 992
WIRE -1664 992 -1696 992
WIRE -1296 992 -1664 992
WIRE -1040 992 -1296 992
WIRE -912 992 -1040 992
WIRE -784 992 -912 992
WIRE -496 992 -784 992
WIRE -64 992 -496 992
WIRE -1776 1008 -1776 992
WIRE -1040 1040 -1040 992
WIRE -912 1040 -912 992
WIRE -784 1040 -784 992
WIRE -1776 1104 -1776 1088
WIRE -1296 1104 -1296 992
WIRE -1248 1104 -1296 1104
WIRE -1136 1104 -1168 1104
WIRE -624 1104 -656 1104
WIRE -496 1104 -496 992
WIRE -496 1104 -544 1104
WIRE -1568 1200 -1616 1200
WIRE -1488 1200 -1568 1200
WIRE -1392 1200 -1488 1200
WIRE -1296 1200 -1392 1200
WIRE -1136 1200 -1296 1200
WIRE -496 1200 -656 1200
WIRE -400 1200 -496 1200
WIRE -288 1200 -400 1200
WIRE -240 1200 -288 1200
WIRE -176 1200 -240 1200
WIRE -1616 1216 -1616 1200
WIRE -1488 1216 -1488 1200
WIRE -1392 1216 -1392 1200
WIRE -400 1216 -400 1200
WIRE -288 1216 -288 1200
WIRE -176 1216 -176 1200
WIRE -1392 1296 -1392 1280
WIRE -1136 1296 -1392 1296
WIRE -400 1296 -400 1280
WIRE -400 1296 -656 1296
WIRE -1616 1312 -1616 1296
WIRE -1488 1312 -1488 1280
WIRE -288 1312 -288 1280
WIRE -176 1312 -176 1296
WIRE -1392 1328 -1392 1296
WIRE -400 1328 -400 1296
WIRE -1392 1424 -1392 1408
WIRE -400 1424 -400 1408
WIRE -1232 1488 -1248 1488
WIRE -1136 1488 -1168 1488
WIRE -624 1488 -656 1488
WIRE -544 1488 -560 1488
WIRE -624 1584 -656 1584
WIRE -544 1584 -560 1584
WIRE -1296 1680 -1296 1200
WIRE -1264 1680 -1296 1680
WIRE -1136 1680 -1184 1680
WIRE -624 1680 -656 1680
WIRE -496 1680 -496 1200
WIRE -496 1680 -544 1680
WIRE -1264 1776 -1296 1776
WIRE -1136 1776 -1184 1776
WIRE -1664 1872 -1664 992
WIRE -1264 1872 -1664 1872
WIRE -1136 1872 -1184 1872
WIRE -624 1872 -656 1872
WIRE -64 1872 -64 992
WIRE -64 1872 -544 1872
WIRE -1552 1968 -1616 1968
WIRE -1488 1968 -1552 1968
WIRE -1392 1968 -1488 1968
WIRE -1296 1968 -1392 1968
WIRE -1136 1968 -1296 1968
WIRE -496 1968 -656 1968
WIRE -400 1968 -496 1968
WIRE -288 1968 -400 1968
WIRE -224 1968 -288 1968
WIRE -176 1968 -224 1968
WIRE -1616 1984 -1616 1968
WIRE -1488 1984 -1488 1968
WIRE -1392 1984 -1392 1968
WIRE -400 1984 -400 1968
WIRE -288 1984 -288 1968
WIRE -176 1984 -176 1968
WIRE -1392 2064 -1392 2048
WIRE -1136 2064 -1392 2064
WIRE -400 2064 -400 2048
WIRE -400 2064 -656 2064
WIRE -1616 2080 -1616 2064
WIRE -1488 2080 -1488 2048
WIRE -288 2080 -288 2048
WIRE -176 2080 -176 2064
WIRE -1392 2096 -1392 2064
WIRE -400 2096 -400 2064
WIRE -1392 2192 -1392 2176
WIRE -400 2192 -400 2176
WIRE -1232 2256 -1248 2256
WIRE -1136 2256 -1168 2256
WIRE -624 2256 -656 2256
WIRE -544 2256 -560 2256
WIRE -624 2352 -656 2352
WIRE -544 2352 -560 2352
WIRE -1296 2448 -1296 1968
WIRE -1264 2448 -1296 2448
WIRE -1136 2448 -1184 2448
WIRE -624 2448 -656 2448
WIRE -496 2448 -496 1968
WIRE -496 2448 -544 2448
WIRE -1264 2544 -1296 2544
WIRE -1136 2544 -1184 2544
WIRE -896 2672 -896 2640
FLAG -1776 1104 0
FLAG -1392 1424 0
FLAG -1616 1312 0
FLAG -1488 1312 0
FLAG -896 2672 0
FLAG -1248 1488 0
FLAG -1296 1776 0
FLAG -400 1424 0
FLAG -176 1312 0
FLAG -288 1312 0
FLAG -544 1488 0
FLAG -1568 1200 OUT1
FLAG -240 1200 OUT2
FLAG -1696 992 IN
FLAG -1392 2192 0
FLAG -1616 2080 0
FLAG -1488 2080 0
FLAG -1552 1968 OUT3
FLAG -544 1584 0
FLAG -544 2352 0
FLAG -1248 2256 0
FLAG -544 2256 0
FLAG -1296 2544 0
FLAG -400 2192 0
FLAG -176 2080 0
FLAG -288 2080 0
FLAG -224 1968 OUT4
SYMBOL LTM8060F -896 1840 R0
SYMATTR InstName U1
SYMBOL voltage -1776 992 R0
WINDOW 123 0 0 Left 2
WINDOW 39 0 0 Left 2
SYMATTR InstName V1
SYMATTR Value 12
SYMBOL res -1408 1312 R0
SYMATTR InstName R1
SYMATTR Value 47.5K
SYMBOL cap -1504 1216 R0
WINDOW 123 30 79 Left 2
WINDOW 3 28 53 Left 2
SYMATTR Value2 m=2
SYMATTR Value 47µ
SYMATTR InstName C1
SYMATTR SpiceLine Rser=7m
SYMBOL cap -1168 1472 R90
WINDOW 0 0 32 VBottom 2
WINDOW 3 32 32 VTop 2
SYMATTR InstName C2
SYMATTR Value 1n
SYMBOL res -1168 1760 R90
WINDOW 0 0 56 VBottom 2
WINDOW 3 32 56 VTop 2
SYMATTR InstName R2
SYMATTR Value 28K
SYMBOL res -416 1312 R0
SYMATTR InstName R3
SYMATTR Value 78.7K
SYMBOL res -1632 1200 R0
SYMATTR InstName Rload1
SYMATTR Value 5
SYMBOL res -192 1200 R0
SYMATTR InstName Rload2
SYMATTR Value 3.3
SYMBOL cap -1408 1216 R0
SYMATTR InstName C3
SYMATTR Value 100p
SYMBOL res -1168 1664 R90
WINDOW 0 0 56 VBottom 2
WINDOW 3 32 56 VTop 2
SYMATTR InstName R4
SYMATTR Value 100K
SYMBOL res -1152 1088 R90
WINDOW 0 0 56 VBottom 2
WINDOW 3 32 56 VTop 2
SYMATTR InstName R5
SYMATTR Value 1Meg
SYMBOL res -1168 1856 R90
WINDOW 0 0 56 VBottom 2
WINDOW 3 32 56 VTop 2
SYMATTR InstName R6
SYMATTR Value 1Meg
SYMBOL res -1168 2432 R90
WINDOW 0 0 56 VBottom 2
WINDOW 3 32 56 VTop 2
SYMATTR InstName R7
SYMATTR Value 100K
SYMBOL res -1408 2080 R0
SYMATTR InstName R8
SYMATTR Value 280K
SYMBOL res -1632 1968 R0
SYMATTR InstName Rload3
SYMATTR Value 1.5
SYMBOL cap -1408 1984 R0
SYMATTR InstName C4
SYMATTR Value 220p
SYMBOL cap -560 1472 R90
WINDOW 0 0 32 VBottom 2
WINDOW 3 32 32 VTop 2
SYMATTR InstName C5
SYMATTR Value 1n
SYMBOL cap -416 1216 R0
SYMATTR InstName C6
SYMATTR Value 100p
SYMBOL res -528 2432 R90
WINDOW 0 0 56 VBottom 2
WINDOW 3 32 56 VTop 2
SYMATTR InstName R9
SYMATTR Value 100K
SYMBOL res -528 1664 R90
WINDOW 0 0 56 VBottom 2
WINDOW 3 32 56 VTop 2
SYMATTR InstName R10
SYMATTR Value 100k
SYMBOL cap -560 1568 R90
WINDOW 0 0 32 VBottom 2
WINDOW 3 32 32 VTop 2
SYMATTR InstName C7
SYMATTR Value 1µ
SYMBOL cap -560 2336 R90
WINDOW 0 0 32 VBottom 2
WINDOW 3 32 32 VTop 2
SYMATTR InstName C8
SYMATTR Value 1µ
SYMBOL res -528 1088 R90
WINDOW 0 0 56 VBottom 2
WINDOW 3 32 56 VTop 2
SYMATTR InstName R11
SYMATTR Value 1Meg
SYMBOL cap -1168 2240 R90
WINDOW 0 0 32 VBottom 2
WINDOW 3 32 32 VTop 2
SYMATTR InstName C9
SYMATTR Value 1n
SYMBOL cap -560 2240 R90
WINDOW 0 0 32 VBottom 2
WINDOW 3 32 32 VTop 2
SYMATTR InstName C10
SYMATTR Value 1n
SYMBOL res -1168 2528 R90
WINDOW 0 0 56 VBottom 2
WINDOW 3 32 56 VTop 2
SYMATTR InstName R12
SYMATTR Value 100K
SYMBOL res -416 2080 R0
SYMATTR InstName R13
SYMATTR Value 499K
SYMBOL res -192 1968 R0
SYMATTR InstName Rload4
SYMATTR Value 1.2
SYMBOL cap -416 1984 R0
SYMATTR InstName C11
SYMATTR Value 680p
SYMBOL res -528 1856 R90
WINDOW 0 0 56 VBottom 2
WINDOW 3 32 56 VTop 2
SYMATTR InstName R14
SYMATTR Value 1Meg
SYMBOL cap -304 1216 R0
WINDOW 123 30 79 Left 2
WINDOW 3 28 53 Left 2
SYMATTR Value2 m=2
SYMATTR Value 47µ
SYMATTR InstName C12
SYMATTR SpiceLine Rser=7m
SYMBOL cap -1504 1984 R0
WINDOW 123 30 79 Left 2
WINDOW 3 28 53 Left 2
SYMATTR Value2 m=2
SYMATTR Value 47µ
SYMATTR InstName C13
SYMATTR SpiceLine Rser=7m
SYMBOL cap -304 1984 R0
WINDOW 123 30 79 Left 2
WINDOW 3 28 53 Left 2
SYMATTR Value2 m=2
SYMATTR Value 47µ
SYMATTR InstName C14
SYMATTR SpiceLine Rser=7m
TEXT -824 2680 Left 2 !.tran 1m startup
TEXT -1392 1760 Top 2 ;fsw=1.2MHz
TEXT -1408 2528 Top 2 ;fsw=400KHz
