Version 4.1
SHEET 1 2644 1404
WIRE -304 -16 -336 -16
WIRE -208 -16 -304 -16
WIRE -144 -16 -208 -16
WIRE 368 -16 288 -16
WIRE 464 -16 368 -16
WIRE 592 -16 464 -16
WIRE 656 -16 592 -16
WIRE 688 -16 656 -16
WIRE 464 0 464 -16
WIRE -336 32 -336 -16
WIRE 688 32 688 -16
WIRE 592 48 592 -16
WIRE -208 80 -208 -16
WIRE -144 80 -208 80
WIRE 320 80 288 80
WIRE 320 112 320 80
WIRE 464 112 464 80
WIRE 464 112 320 112
WIRE -336 144 -336 112
WIRE 464 144 464 112
WIRE 592 160 592 112
WIRE 688 160 688 112
WIRE -208 176 -208 80
WIRE -144 176 -208 176
WIRE 368 176 368 -16
WIRE 368 176 288 176
WIRE 464 256 464 224
WIRE -144 272 -208 272
WIRE 368 272 368 176
WIRE 368 272 288 272
WIRE -208 560 -208 272
WIRE -144 560 -208 560
WIRE -208 656 -208 560
WIRE -144 656 -208 656
WIRE 320 656 288 656
WIRE 432 656 400 656
WIRE -208 800 -208 656
WIRE 80 800 80 736
WIRE 80 800 -208 800
WIRE 80 832 80 800
FLAG -336 144 0
FLAG 464 256 0
FLAG 432 656 0
FLAG 592 160 0
FLAG 688 160 0
FLAG 80 832 0
FLAG 656 -16 OUT
FLAG -304 -16 IN
SYMBOL voltage -336 16 R0
WINDOW 123 24 138 Left 2
WINDOW 39 24 117 Left 2
SYMATTR Value 20
SYMATTR InstName V1
SYMBOL res 448 -16 R0
SYMATTR InstName R1
SYMATTR Value 100k
SYMBOL res 448 128 R0
SYMATTR InstName R2
SYMATTR Value 9.09k
SYMBOL cap 576 48 R0
WINDOW 0 24 10 Left 2
SYMATTR InstName C1
SYMATTR Value 10µ
SYMATTR SpiceLine V=16 Irms=13.8 Rser=0.00468332 Lser=0 mfg="KEMET" pn="C1210C106K4RAC" type="X7R"
SYMBOL res 304 640 M90
WINDOW 0 0 56 VBottom 2
WINDOW 3 37 64 VTop 2
SYMATTR InstName R3
SYMATTR Value 40.2k
SYMBOL res 672 16 R0
SYMATTR InstName Rload
SYMATTR Value 24
SYMBOL LTM8083 80 336 R0
SYMATTR InstName U1
TEXT 360 808 Left 2 !.tran 1.2m startup
