Version 4.1
SHEET 1 1944 4456
WIRE -1360 -880 -1440 -880
WIRE -1328 -880 -1360 -880
WIRE -960 -880 -1328 -880
WIRE -704 -880 -960 -880
WIRE -576 -880 -704 -880
WIRE -448 -880 -576 -880
WIRE -160 -880 -448 -880
WIRE 272 -880 -160 -880
WIRE -1440 -864 -1440 -880
WIRE -704 -832 -704 -880
WIRE -576 -832 -576 -880
WIRE -448 -832 -448 -880
WIRE -1440 -768 -1440 -784
WIRE -960 -768 -960 -880
WIRE -912 -768 -960 -768
WIRE -800 -768 -832 -768
WIRE -288 -768 -320 -768
WIRE -160 -768 -160 -880
WIRE -160 -768 -208 -768
WIRE -1232 -672 -1280 -672
WIRE -1152 -672 -1232 -672
WIRE -1056 -672 -1152 -672
WIRE -960 -672 -1056 -672
WIRE -800 -672 -960 -672
WIRE -160 -672 -320 -672
WIRE -64 -672 -160 -672
WIRE 48 -672 -64 -672
WIRE 96 -672 48 -672
WIRE 160 -672 96 -672
WIRE -1280 -656 -1280 -672
WIRE -1152 -656 -1152 -672
WIRE -1056 -656 -1056 -672
WIRE -64 -656 -64 -672
WIRE 48 -656 48 -672
WIRE 160 -656 160 -672
WIRE -1056 -576 -1056 -592
WIRE -800 -576 -1056 -576
WIRE -64 -576 -64 -592
WIRE -64 -576 -320 -576
WIRE -1280 -560 -1280 -576
WIRE -1152 -560 -1152 -592
WIRE 48 -560 48 -592
WIRE 160 -560 160 -576
WIRE -1056 -544 -1056 -576
WIRE -64 -544 -64 -576
WIRE -1056 -448 -1056 -464
WIRE -64 -448 -64 -464
WIRE -896 -384 -912 -384
WIRE -800 -384 -832 -384
WIRE -288 -384 -320 -384
WIRE -208 -384 -224 -384
WIRE -288 -288 -320 -288
WIRE -208 -288 -224 -288
WIRE -960 -192 -960 -672
WIRE -928 -192 -960 -192
WIRE -800 -192 -848 -192
WIRE -288 -192 -320 -192
WIRE -160 -192 -160 -672
WIRE -160 -192 -208 -192
WIRE -928 -96 -960 -96
WIRE -800 -96 -848 -96
WIRE -1328 0 -1328 -880
WIRE -928 0 -1328 0
WIRE -800 0 -848 0
WIRE -288 0 -320 0
WIRE 272 0 272 -880
WIRE 272 0 -208 0
WIRE -1216 96 -1280 96
WIRE -1152 96 -1216 96
WIRE -1056 96 -1152 96
WIRE -960 96 -1056 96
WIRE -800 96 -960 96
WIRE -160 96 -320 96
WIRE -64 96 -160 96
WIRE 48 96 -64 96
WIRE 112 96 48 96
WIRE 160 96 112 96
WIRE -1280 112 -1280 96
WIRE -1152 112 -1152 96
WIRE -1056 112 -1056 96
WIRE -64 112 -64 96
WIRE 48 112 48 96
WIRE 160 112 160 96
WIRE -1056 192 -1056 176
WIRE -800 192 -1056 192
WIRE -64 192 -64 176
WIRE -64 192 -320 192
WIRE -1280 208 -1280 192
WIRE -1152 208 -1152 176
WIRE 48 208 48 176
WIRE 160 208 160 192
WIRE -1056 224 -1056 192
WIRE -64 224 -64 192
WIRE -1056 320 -1056 304
WIRE -64 320 -64 304
WIRE -896 384 -912 384
WIRE -800 384 -832 384
WIRE -288 384 -320 384
WIRE -208 384 -224 384
WIRE -288 480 -320 480
WIRE -208 480 -224 480
WIRE -960 576 -960 96
WIRE -928 576 -960 576
WIRE -800 576 -848 576
WIRE -288 576 -320 576
WIRE -160 576 -160 96
WIRE -160 576 -208 576
WIRE -928 672 -960 672
WIRE -800 672 -848 672
WIRE -560 800 -560 768
FLAG -1440 -768 0
FLAG -1056 -448 0
FLAG -1280 -560 0
FLAG -1152 -560 0
FLAG -560 800 0
FLAG -912 -384 0
FLAG -960 -96 0
FLAG -64 -448 0
FLAG 160 -560 0
FLAG 48 -560 0
FLAG -208 -384 0
FLAG -1232 -672 OUT1
FLAG 96 -672 OUT2
FLAG -1360 -880 IN
FLAG -1056 320 0
FLAG -1280 208 0
FLAG -1152 208 0
FLAG -1216 96 OUT3
FLAG -208 -288 0
FLAG -208 480 0
FLAG -912 384 0
FLAG -208 384 0
FLAG -960 672 0
FLAG -64 320 0
FLAG 160 208 0
FLAG 48 208 0
FLAG 112 96 OUT4
SYMBOL LTM8060 -560 -32 R0
SYMATTR InstName U1
SYMBOL voltage -1440 -880 R0
WINDOW 123 0 0 Left 2
WINDOW 39 0 0 Left 2
SYMATTR InstName V1
SYMATTR Value 12
SYMBOL res -1072 -560 R0
SYMATTR InstName R1
SYMATTR Value 47.5K
SYMBOL cap -1168 -656 R0
WINDOW 123 30 79 Left 2
WINDOW 3 28 53 Left 2
SYMATTR Value2 m=2
SYMATTR Value 47µ
SYMATTR InstName C1
SYMATTR SpiceLine Rser=7m
SYMBOL cap -832 -400 R90
WINDOW 0 0 32 VBottom 2
WINDOW 3 32 32 VTop 2
SYMATTR InstName C2
SYMATTR Value 1n
SYMBOL res -832 -112 R90
WINDOW 0 0 56 VBottom 2
WINDOW 3 32 56 VTop 2
SYMATTR InstName R2
SYMATTR Value 28K
SYMBOL res -80 -560 R0
SYMATTR InstName R3
SYMATTR Value 78.7K
SYMBOL res -1296 -672 R0
SYMATTR InstName Rload1
SYMATTR Value 5
SYMBOL res 144 -672 R0
SYMATTR InstName Rload2
SYMATTR Value 3.3
SYMBOL cap -1072 -656 R0
SYMATTR InstName C3
SYMATTR Value 100p
SYMBOL res -832 -208 R90
WINDOW 0 0 56 VBottom 2
WINDOW 3 32 56 VTop 2
SYMATTR InstName R4
SYMATTR Value 100K
SYMBOL res -816 -784 R90
WINDOW 0 0 56 VBottom 2
WINDOW 3 32 56 VTop 2
SYMATTR InstName R5
SYMATTR Value 1Meg
SYMBOL res -832 -16 R90
WINDOW 0 0 56 VBottom 2
WINDOW 3 32 56 VTop 2
SYMATTR InstName R6
SYMATTR Value 1Meg
SYMBOL res -832 560 R90
WINDOW 0 0 56 VBottom 2
WINDOW 3 32 56 VTop 2
SYMATTR InstName R7
SYMATTR Value 100K
SYMBOL res -1072 208 R0
SYMATTR InstName R8
SYMATTR Value 280K
SYMBOL res -1296 96 R0
SYMATTR InstName Rload3
SYMATTR Value 1.5
SYMBOL cap -1072 112 R0
SYMATTR InstName C4
SYMATTR Value 220p
SYMBOL cap -224 -400 R90
WINDOW 0 0 32 VBottom 2
WINDOW 3 32 32 VTop 2
SYMATTR InstName C5
SYMATTR Value 1n
SYMBOL cap -80 -656 R0
SYMATTR InstName C6
SYMATTR Value 100p
SYMBOL res -192 560 R90
WINDOW 0 0 56 VBottom 2
WINDOW 3 32 56 VTop 2
SYMATTR InstName R9
SYMATTR Value 100K
SYMBOL res -192 -208 R90
WINDOW 0 0 56 VBottom 2
WINDOW 3 32 56 VTop 2
SYMATTR InstName R10
SYMATTR Value 100k
SYMBOL cap -224 -304 R90
WINDOW 0 0 32 VBottom 2
WINDOW 3 32 32 VTop 2
SYMATTR InstName C7
SYMATTR Value 1µ
SYMBOL cap -224 464 R90
WINDOW 0 0 32 VBottom 2
WINDOW 3 32 32 VTop 2
SYMATTR InstName C8
SYMATTR Value 1µ
SYMBOL res -192 -784 R90
WINDOW 0 0 56 VBottom 2
WINDOW 3 32 56 VTop 2
SYMATTR InstName R11
SYMATTR Value 1Meg
SYMBOL cap -832 368 R90
WINDOW 0 0 32 VBottom 2
WINDOW 3 32 32 VTop 2
SYMATTR InstName C9
SYMATTR Value 1n
SYMBOL cap -224 368 R90
WINDOW 0 0 32 VBottom 2
WINDOW 3 32 32 VTop 2
SYMATTR InstName C10
SYMATTR Value 1n
SYMBOL res -832 656 R90
WINDOW 0 0 56 VBottom 2
WINDOW 3 32 56 VTop 2
SYMATTR InstName R12
SYMATTR Value 100K
SYMBOL res -80 208 R0
SYMATTR InstName R13
SYMATTR Value 499K
SYMBOL res 144 96 R0
SYMATTR InstName Rload4
SYMATTR Value 1.2
SYMBOL cap -80 112 R0
SYMATTR InstName C11
SYMATTR Value 680p
SYMBOL res -192 -16 R90
WINDOW 0 0 56 VBottom 2
WINDOW 3 32 56 VTop 2
SYMATTR InstName R14
SYMATTR Value 1Meg
SYMBOL cap 32 -656 R0
WINDOW 123 30 79 Left 2
WINDOW 3 28 53 Left 2
SYMATTR Value2 m=2
SYMATTR Value 47µ
SYMATTR InstName C12
SYMATTR SpiceLine Rser=7m
SYMBOL cap -1168 112 R0
WINDOW 123 30 79 Left 2
WINDOW 3 28 53 Left 2
SYMATTR Value2 m=2
SYMATTR Value 47µ
SYMATTR InstName C13
SYMATTR SpiceLine Rser=7m
SYMBOL cap 32 112 R0
WINDOW 123 30 79 Left 2
WINDOW 3 28 53 Left 2
SYMATTR Value2 m=2
SYMATTR Value 47µ
SYMATTR InstName C14
SYMATTR SpiceLine Rser=7m
TEXT -488 808 Left 2 !.tran 1m startup
TEXT -1056 -112 Top 2 ;fsw=1.2MHz
TEXT -1072 656 Top 2 ;fsw=400KHz
