Version 4.1
SHEET 1 1252 680
WIRE -96 -128 -112 -128
WIRE 336 -128 -96 -128
WIRE 336 -112 336 -128
WIRE -112 -48 -112 -128
WIRE 176 -48 144 -48
WIRE 560 -48 496 -48
WIRE 704 -48 640 -48
WIRE 832 -48 704 -48
WIRE 928 -48 832 -48
WIRE 992 -48 928 -48
WIRE 1008 -48 992 -48
WIRE 704 -32 704 -48
WIRE 832 -32 832 -48
WIRE 1008 -32 1008 -48
WIRE 832 48 832 32
WIRE -112 64 -112 32
WIRE 48 64 16 64
WIRE 144 64 112 64
WIRE 176 64 144 64
WIRE 704 64 704 48
WIRE 704 64 496 64
WIRE 1008 64 1008 48
WIRE 704 96 704 64
WIRE 928 112 928 -48
WIRE 48 176 0 176
WIRE 176 176 112 176
WIRE 512 176 496 176
WIRE 704 176 704 160
WIRE 32 288 0 288
WIRE 176 288 112 288
WIRE 928 288 928 192
WIRE 928 288 496 288
WIRE 928 304 928 288
WIRE 176 400 144 400
WIRE 560 400 496 400
WIRE 672 400 640 400
WIRE 928 400 928 384
WIRE 336 464 336 448
FLAG -112 64 0
FLAG 0 288 0
FLAG 336 464 0
FLAG 832 48 0
FLAG 1008 64 0
FLAG -96 -128 IN
FLAG 992 -48 OUT
FLAG 0 176 0
FLAG 928 400 0
FLAG 512 176 0
FLAG 144 400 0
FLAG 16 64 0
FLAG 672 400 Vcc
FLAG 704 176 0
FLAG 144 64 Vcc
FLAG 144 -48 EN/UVLO
SYMBOL voltage -112 -64 R0
WINDOW 123 0 0 Left 0
WINDOW 39 0 0 Left 0
SYMATTR InstName V1
SYMATTR Value 24
SYMBOL ind 544 -32 R270
WINDOW 0 32 56 VTop 2
WINDOW 3 5 56 VBottom 2
SYMATTR InstName L1
SYMATTR Value 56µ
SYMATTR SpiceLine Rser=0.48
SYMBOL cap 816 -32 R0
SYMATTR InstName C2
SYMATTR Value 5.6µ
SYMATTR SpiceLine Rser=4.6m
SYMBOL res 992 -48 R0
SYMATTR InstName Rload
SYMATTR Value {5/0.3}
SYMBOL cap 112 192 M270
WINDOW 0 32 32 VTop 2
WINDOW 3 0 32 VBottom 2
SYMATTR InstName C3
SYMATTR Value 5.6n
SYMBOL res 912 96 R0
SYMATTR InstName R1
SYMATTR Value 95.3k
SYMBOL res 912 288 R0
SYMATTR InstName R2
SYMATTR Value 18.2k
SYMBOL res 128 272 R90
WINDOW 0 0 56 VBottom 2
WINDOW 3 32 56 VTop 2
SYMATTR InstName R4
SYMATTR Value 69.8k
SYMBOL cap 112 48 R90
WINDOW 0 0 32 VBottom 2
WINDOW 3 32 32 VTop 2
SYMATTR InstName C1
SYMATTR Value 1µ
SYMBOL res 656 384 R90
WINDOW 0 0 56 VBottom 2
WINDOW 3 32 56 VTop 2
SYMATTR InstName R3
SYMATTR Value 10k
SYMBOL res 688 -48 R0
SYMATTR InstName R5
SYMATTR Value 22
SYMBOL cap 688 96 R0
SYMATTR InstName C4
SYMATTR Value 100n
SYMBOL MAX17760 336 160 R0
SYMATTR InstName U1
TEXT 808 472 Left 2 !.tran 3.5m startup
