Version 4.1
SHEET 1 2152 680
WIRE 1136 -128 1120 -128
WIRE 1248 -128 1136 -128
WIRE 1472 -128 1248 -128
WIRE 1120 -112 1120 -128
WIRE 1472 -96 1472 -128
WIRE 1248 -32 1248 -128
WIRE 1312 -32 1248 -32
WIRE 1696 -32 1632 -32
WIRE 1120 -16 1120 -32
WIRE 1696 -16 1696 -32
WIRE 1248 80 1184 80
WIRE 1312 80 1248 80
WIRE 1696 80 1696 48
WIRE 1696 80 1632 80
WIRE 1248 96 1248 80
WIRE 1696 96 1696 80
WIRE 1248 176 1248 160
WIRE 1696 192 1696 176
WIRE 1696 192 1632 192
WIRE 1776 192 1696 192
WIRE 1888 192 1776 192
WIRE 1904 192 1888 192
WIRE 1776 208 1776 192
WIRE 1904 208 1904 192
WIRE 1776 288 1776 272
WIRE 1696 304 1632 304
WIRE 1904 304 1904 288
WIRE 1312 416 1248 416
WIRE 1696 416 1696 304
WIRE 1696 416 1632 416
WIRE 1248 432 1248 416
WIRE 1472 480 1472 464
WIRE 1184 528 1184 80
WIRE 1248 528 1248 512
WIRE 1248 528 1184 528
WIRE 1696 528 1696 416
WIRE 1696 528 1248 528
FLAG 1120 -16 0
FLAG 1472 480 0
FLAG 1776 288 0
FLAG 1904 304 0
FLAG 1136 -128 IN
FLAG 1888 192 OUT
FLAG 1248 176 0
SYMBOL voltage 1120 -128 R0
WINDOW 123 0 0 Left 0
WINDOW 39 0 0 Left 0
SYMATTR InstName V1
SYMATTR Value 14
SYMBOL cap 1760 208 R0
WINDOW 3 46 38 Left 2
WINDOW 123 51 63 Left 2
WINDOW 0 49 7 Left 2
SYMATTR Value 22µ
SYMATTR Value2 x4
SYMATTR InstName C3
SYMATTR SpiceLine Rser=4.6m
SYMBOL res 1888 192 R0
SYMATTR InstName Rload
SYMATTR Value {5/8}
SYMBOL cap 1232 96 R0
SYMATTR InstName C1
SYMATTR Value 2.2µ
SYMBOL res 1232 416 R0
SYMATTR InstName R1
SYMATTR Value 10k
SYMBOL cap 1680 -16 R0
SYMATTR InstName C2
SYMATTR Value 0.1µ
SYMBOL ind 1680 80 R0
SYMATTR InstName L1
SYMATTR Value 470n
SYMATTR SpiceLine Ipk=14 Rser=0.00285 Rpar=0 Cpar=0 mfg="Murata" pn="FCUL0530-R47M=P3"
SYMBOL MAX20408 1472 176 R0
SYMATTR InstName U1
TEXT 1368 592 Left 2 !.tran 3m startup
