Version 4
SHEET 1 1144 680
WIRE 224 192 16 192
WIRE 544 192 512 192
WIRE 656 192 624 192
WIRE 768 192 656 192
WIRE 816 192 768 192
WIRE 864 192 816 192
WIRE 16 208 16 192
WIRE 656 208 656 192
WIRE 768 208 768 192
WIRE 864 208 864 192
WIRE 128 288 96 288
WIRE 208 288 192 288
WIRE 224 288 208 288
WIRE 656 288 512 288
WIRE 16 304 16 288
WIRE 656 304 656 288
WIRE 768 304 768 272
WIRE 864 304 864 288
WIRE 208 384 208 288
WIRE 224 384 208 384
WIRE 528 384 512 384
WIRE 656 400 656 384
FLAG 96 288 0
FLAG 16 304 0
FLAG 768 304 0
FLAG 656 400 0
FLAG 864 304 0
FLAG 816 192 OUT
FLAG 16 192 IN
FLAG 528 384 0
SYMBOL cap 192 272 R90
WINDOW 0 0 32 VBottom 2
WINDOW 3 32 32 VTop 2
SYMATTR InstName C1
SYMATTR Value 1µ
SYMBOL voltage 16 192 R0
SYMATTR InstName V1
SYMATTR Value 24
SYMBOL res 640 192 R0
SYMATTR InstName R2
SYMATTR Value 232K
SYMBOL res 640 288 R0
SYMATTR InstName R3
SYMATTR Value 26.1K
SYMBOL res 848 192 R0
SYMATTR InstName Rload
SYMATTR Value 47
SYMBOL cap 752 208 R0
SYMATTR Value 10µ
SYMATTR InstName C2
SYMBOL ind 528 208 R270
WINDOW 0 32 56 VTop 2
WINDOW 3 5 56 VBottom 2
SYMATTR InstName L1
SYMATTR Value 33µ
SYMBOL MAX22513 368 288 R0
SYMATTR InstName U1
TEXT 296 544 Left 2 !.tran 3.5m startup
