Version 4.1
SHEET 1 1988 1664
WIRE -80 1104 -144 1104
WIRE -32 1104 -80 1104
WIRE 80 1104 -32 1104
WIRE 96 1104 80 1104
WIRE 352 1104 320 1104
WIRE 432 1104 352 1104
WIRE 544 1104 432 1104
WIRE 592 1104 544 1104
WIRE 640 1104 592 1104
WIRE -144 1120 -144 1104
WIRE 352 1120 352 1104
WIRE 544 1120 544 1104
WIRE 640 1120 640 1104
WIRE -32 1136 -32 1104
WIRE 432 1152 432 1104
WIRE 80 1200 80 1104
WIRE 96 1200 80 1200
WIRE 352 1200 352 1184
WIRE 352 1200 320 1200
WIRE -144 1216 -144 1200
WIRE 544 1216 544 1184
WIRE 640 1216 640 1200
WIRE -32 1280 -32 1216
WIRE 96 1280 -32 1280
WIRE 432 1280 432 1232
WIRE 432 1280 320 1280
WIRE 432 1312 432 1280
WIRE -80 1344 -80 1104
WIRE 96 1344 -80 1344
WIRE 208 1424 208 1392
WIRE 432 1424 432 1392
FLAG -144 1216 0
FLAG -144 1104 IN
FLAG 544 1216 0
FLAG 640 1216 0
FLAG 592 1104 OUT
FLAG 432 1424 0
FLAG 208 1424 0
SYMBOL voltage -144 1104 R0
WINDOW 123 0 0 Left 0
WINDOW 39 0 0 Left 0
SYMATTR InstName V1
SYMATTR Value 2.1
SYMBOL cap 336 1120 R0
SYMATTR InstName C2
SYMATTR Value 10n
SYMBOL cap 528 1120 R0
SYMATTR InstName C3
SYMATTR Value 4.7µ
SYMBOL res 624 1104 R0
SYMATTR InstName R1
SYMATTR Value 3.6
SYMBOL res 416 1136 R0
SYMATTR InstName R2
SYMATTR Value 604k
SYMBOL res 416 1296 R0
SYMATTR InstName R3
SYMATTR Value 301k
SYMBOL MAX38912 208 1184 R0
SYMATTR InstName U1
SYMBOL res -48 1120 R0
SYMATTR InstName R4
SYMATTR Value 100k
TEXT 112 1464 Left 2 !.tran 0.8 startup
