Version 4.1
SHEET 1 1272 680
WIRE 80 -144 64 -144
WIRE 144 -144 80 -144
WIRE 176 -144 144 -144
WIRE 512 -144 464 -144
WIRE 64 -128 64 -144
WIRE 512 -128 512 -144
WIRE 144 -96 144 -144
WIRE 176 -96 144 -96
WIRE 64 -32 64 -48
WIRE 512 -32 512 -64
WIRE 512 -32 464 -32
WIRE 592 -32 512 -32
WIRE 720 -32 672 -32
WIRE 848 -32 720 -32
WIRE 960 -32 848 -32
WIRE 1024 -32 960 -32
WIRE 1056 -32 1024 -32
WIRE 720 -16 720 -32
WIRE 1056 -16 1056 -32
WIRE 848 0 848 -32
WIRE 960 0 960 -32
WIRE 176 16 144 16
WIRE 656 32 720 -32
WIRE 656 32 464 32
WIRE 720 64 720 48
WIRE 1056 80 1056 64
WIRE 848 96 848 80
WIRE 848 96 464 96
WIRE 960 96 960 64
WIRE 960 96 848 96
WIRE 848 128 848 96
WIRE 480 224 464 224
WIRE 848 224 848 208
WIRE 144 272 144 16
WIRE 144 272 64 272
WIRE 176 272 144 272
WIRE 64 288 64 272
WIRE 512 288 464 288
WIRE 608 288 512 288
WIRE 320 352 320 336
WIRE 64 368 64 352
WIRE 144 400 144 272
WIRE 496 400 144 400
WIRE 608 400 608 288
WIRE 608 400 576 400
FLAG 64 -32 0
FLAG 64 368 0
FLAG 320 352 0
FLAG 720 64 0
FLAG 1056 80 0
FLAG 80 -144 vIN
FLAG 1024 -32 vOUT
FLAG 480 224 0
FLAG 848 224 0
FLAG 512 288 PGOOD
SYMBOL voltage 64 -144 R0
WINDOW 123 0 0 Left 0
WINDOW 39 0 0 Left 0
SYMATTR InstName V1
SYMATTR Value 12
SYMBOL cap 48 288 R0
SYMATTR InstName C1
SYMATTR Value 2.2µ
SYMBOL ind 576 -16 R270
WINDOW 0 32 56 VTop 2
WINDOW 3 5 56 VBottom 2
SYMATTR InstName L1
SYMATTR Value 2.2µ
SYMATTR SpiceLine Rser=4.3m
SYMBOL cap 704 -16 R0
WINDOW 3 43 38 Left 2
WINDOW 123 48 63 Left 2
SYMATTR InstName C3
SYMATTR Value 100µ
SYMATTR SpiceLine Rser=5m
SYMATTR Value2 m=4
SYMBOL res 1040 -32 R0
SYMATTR InstName Rload
SYMATTR Value 0.42
SYMBOL cap 496 -128 R0
SYMATTR InstName C2
SYMATTR Value 0.1µ
SYMBOL res 592 384 R90
WINDOW 0 0 56 VBottom 2
WINDOW 3 32 56 VTop 2
SYMATTR InstName R1
SYMATTR Value 20k
SYMBOL res 832 -16 R0
SYMATTR InstName R2
SYMATTR Value 49.9k
SYMBOL res 832 112 R0
SYMATTR InstName R3
SYMATTR Value 15.8k
SYMBOL cap 944 0 R0
SYMATTR InstName C4
SYMATTR Value 220p
SYMBOL MAX42408A 320 96 R0
SYMATTR InstName U1
TEXT 648 376 Left 2 !.tran 3m startup
