Version 4.1
SHEET 1 880 680
WIRE 32 32 16 32
WIRE 144 32 112 32
WIRE 224 32 144 32
WIRE 288 32 224 32
WIRE 288 48 288 32
WIRE 144 112 144 32
WIRE 64 144 32 144
WIRE 112 144 64 144
WIRE 224 144 176 144
WIRE 288 144 288 128
WIRE 288 144 224 144
WIRE 32 176 32 144
WIRE 144 192 144 176
WIRE 32 272 32 256
FLAG 224 32 VCC
FLAG 224 144 OUT
FLAG 144 192 0
FLAG 16 32 0
FLAG 32 272 0
FLAG 64 144 IN
SYMBOL MAX9062 144 144 R0
SYMATTR InstName U1
SYMBOL res 272 32 R0
SYMATTR InstName R1
SYMATTR Value 10k
SYMBOL voltage 128 32 R90
WINDOW 0 -32 56 VBottom 2
WINDOW 3 32 56 VTop 2
SYMATTR InstName Vcc
SYMATTR Value 3.3
SYMBOL voltage 32 160 R0
WINDOW 123 24 124 Left 2
SYMATTR Value2 250m 1.5m 150m 2m 250m)
SYMATTR InstName Vin
SYMATTR Value PWL(0 250m 500u 150m 1m
TEXT -40 328 Left 2 !.tran 2m
