Version 4.1
SHEET 1 1496 680
WIRE -96 -128 -112 -128
WIRE 144 -128 -96 -128
WIRE 336 -128 144 -128
WIRE 336 -112 336 -128
WIRE -112 -48 -112 -128
WIRE 144 -48 144 -128
WIRE 176 -48 144 -48
WIRE 560 -48 496 -48
WIRE -112 64 -112 32
WIRE 48 64 0 64
WIRE 144 64 112 64
WIRE 176 64 144 64
WIRE 560 64 560 16
WIRE 560 64 496 64
WIRE 48 176 0 176
WIRE 176 176 112 176
WIRE 560 176 496 176
WIRE 688 176 560 176
WIRE 800 176 688 176
WIRE 896 176 800 176
WIRE 912 176 896 176
WIRE 560 192 560 176
WIRE 688 192 688 176
WIRE 912 192 912 176
WIRE 688 272 688 256
WIRE 800 272 800 176
WIRE 32 288 0 288
WIRE 176 288 112 288
WIRE 560 288 560 272
WIRE 560 288 496 288
WIRE 912 288 912 272
WIRE 560 368 560 352
WIRE 32 400 0 400
WIRE 176 400 112 400
WIRE 800 400 800 352
WIRE 800 400 496 400
WIRE 800 448 800 400
WIRE 336 464 336 448
WIRE 800 544 800 528
FLAG -112 64 0
FLAG 0 288 0
FLAG 336 464 0
FLAG 688 272 0
FLAG 912 288 0
FLAG -96 -128 IN
FLAG 896 176 OUT
FLAG 0 176 0
FLAG 800 544 0
FLAG 0 64 0
FLAG 0 400 Vcc
FLAG 560 368 0
FLAG 144 64 Vcc
SYMBOL voltage -112 -64 R0
WINDOW 123 0 0 Left 0
WINDOW 39 0 0 Left 0
SYMATTR InstName V1
SYMATTR Value 24
SYMBOL cap 672 192 R0
SYMATTR InstName C5
SYMATTR Value 22µ
SYMATTR SpiceLine Rser=4.6m
SYMBOL res 896 176 R0
SYMATTR InstName Rload
SYMATTR Value 5
SYMBOL cap 112 192 M270
WINDOW 0 32 32 VTop 2
WINDOW 3 0 32 VBottom 2
SYMATTR InstName C2
SYMATTR Value 5.6n
SYMBOL res 784 256 R0
SYMATTR InstName R4
SYMATTR Value 118k
SYMBOL res 784 432 R0
SYMATTR InstName R5
SYMATTR Value 25.5k
SYMBOL res 128 272 R90
WINDOW 0 0 56 VBottom 2
WINDOW 3 32 56 VTop 2
SYMATTR InstName R1
SYMATTR Value 21.5k
SYMBOL cap 112 48 R90
WINDOW 0 0 32 VBottom 2
WINDOW 3 32 32 VTop 2
SYMATTR InstName C1
SYMATTR Value 2.2µ
SYMBOL res 16 384 M90
WINDOW 0 0 56 VBottom 2
WINDOW 3 32 56 VTop 2
SYMATTR InstName R2
SYMATTR Value 10k
SYMBOL res 544 176 R0
SYMATTR InstName R3
SYMATTR Value 4.7
SYMBOL cap 544 288 R0
SYMATTR InstName C4
SYMATTR Value 0.1µ
SYMBOL cap 544 -48 R0
SYMATTR InstName C3
SYMATTR Value 0.1µ
SYMBOL MAXM17572 336 160 R0
SYMATTR InstName U1
TEXT 272 592 Left 2 !.tran 2m startup
